76
	Energy:   31899.0068069
Au    0.0000000000    0.0000000000    0.0000000000    L0
Au    2.9200000000    0.0000000000    0.0000000000    L0
Au    5.8400000000    0.0000000000    0.0000000000    L0
Au    1.4600000000    2.5287941680    0.0000000000    L0
Au    4.3800000000    2.5287941680    0.0000000000    L0
Au    7.3000000000    2.5287941680    0.0000000000    L0
Au    2.9200000000    5.0575883360    0.0000000000    L0
Au    5.8400000000    5.0575883360    0.0000000000    L0
Au    8.7600000000    5.0575883360    0.0000000000    L0
Au    1.4600000000    0.8429312920    2.3841700720    L0
Au    4.3800000000    0.8429312920    2.3841700720    L0
Au    7.3000000000    0.8429312920    2.3841700720    L0
Au    2.9200000000    3.3717254600    2.3841700720    L0
Au    5.8400000000    3.3717254600    2.3841700720    L0
Au    8.7600000000    3.3717254600    2.3841700720    L0
Au    4.3800000000    5.9005196280    2.3841700720    L0
Au    7.3000000000    5.9005196280    2.3841700720    L0
Au    10.2200000000    5.9005196280    2.3841700720    L0
Au    0.0000000000    1.6858628760    4.7683401440    L0
Au    2.9200000000    1.6858628760    4.7683401440    L0
Au    5.8400000000    1.6858628760    4.7683401440    L0
Au    1.4600000000    4.2146570440    4.7683401440    L0
Au    4.3800000000    4.2146570440    4.7683401440    L0
Au    7.3000000000    4.2146570440    4.7683401440    L0
Au    2.9200000000    6.7434512120    4.7683401440    L0
Au    5.8400000000    6.7434512120    4.7683401440    L0
Au    8.7600000000    6.7434512120    4.7683401440    L0
C    4.32595021576291    2.631473327059479    15.295991122506065    S
C    4.5368385533224735    3.7942890603956463    14.583308346590137    S
C    4.358375678709962    3.7906477180513103    13.198959696317752    S
C    3.969320141784993    2.6087755954968097    12.47659791181047    S
C    3.917533190323827    1.472734925321586    14.66093934157052    S
C    3.7311248802434664    1.453811179973473    13.267973173461982    S
C    3.9190064021576956    2.5744963026759367    10.936838329833979    S
H    4.555629266486882    4.747495519629984    12.754733279585036    S
S    4.515796456523795    2.594819198563564    17.03680440469148    S
H    3.7595484842080666    0.5886018417850224    15.273195617593599    S
H    3.4292461237798073    0.518189864323468    12.83471552460012    S
H    4.845824996313423    4.700577920423491    15.103817667868084    S
C    4.415508075255792    3.7041164855332016    10.241158147571822    S
C    4.567682465689979    3.71733216677309    8.870174055590683    S
C    4.206431231111644    2.5931898988882702    8.136343354358848    S
C    3.6489834887822643    1.460628395041375    8.731516209146381    S
C    3.5022346824737336    1.4456097907632173    10.135038901364984    S
H    5.00586116111131    4.6077410215124015    8.405734656658284    S
H    4.749605962470943    4.59415424269873    10.735532941405536    S
H    3.3695720427425777    0.5925456501769647    8.102829568529067    S
H    3.095116308302273    0.5339746302305249    10.55530953547177    S
S    4.515796456523795    2.594819198563564    6.4183400000000015    S
Au    8.7600000000    6.7434512120    19.436799999999998    R0
Au    5.8400000000    6.7434512120    19.436799999999998    R0
Au    2.9200000000    6.7434512120    19.436799999999998    R0
Au    7.3000000000    4.2146570440    19.436799999999998    R0
Au    4.3800000000    4.2146570440    19.436799999999998    R0
Au    1.4600000000    4.2146570440    19.436799999999998    R0
Au    5.8400000000    1.6858628760    19.436799999999998    R0
Au    2.9200000000    1.6858628760    19.436799999999998    R0
Au    0.0000000000    1.6858628760    19.436799999999998    R0
Au    10.2200000000    5.9005196280    21.820970072    R0
Au    7.3000000000    5.9005196280    21.820970072    R0
Au    4.3800000000    5.9005196280    21.820970072    R0
Au    8.7600000000    3.3717254600    21.820970072    R0
Au    5.8400000000    3.3717254600    21.820970072    R0
Au    2.9200000000    3.3717254600    21.820970072    R0
Au    7.3000000000    0.8429312920    21.820970072    R0
Au    4.3800000000    0.8429312920    21.820970072    R0
Au    1.4600000000    0.8429312920    21.820970072    R0
Au    8.7600000000    5.0575883360    24.205140143999998    R0
Au    5.8400000000    5.0575883360    24.205140143999998    R0
Au    2.9200000000    5.0575883360    24.205140143999998    R0
Au    7.3000000000    2.5287941680    24.205140143999998    R0
Au    4.3800000000    2.5287941680    24.205140143999998    R0
Au    1.4600000000    2.5287941680    24.205140143999998    R0
Au    5.8400000000    0.0000000000    24.205140143999998    R0
Au    2.9200000000    0.0000000000    24.205140143999998    R0
Au    0.0000000000    0.0000000000    24.205140143999998    R0
