     110
 i =      158, E =     -1594.8873640664
 Au         1.6649000000        0.0000000000        0.0000000000
 Au         6.6598000000        0.0000000000        0.0000000000
 Au         4.1623000000        1.4419000000        0.0000000000
 Au         9.1572000000        1.4419000000        0.0000000000
 Au         6.6598000000        2.8838000000        0.0000000000
 Au        11.6546000000        2.8838000000        0.0000000000
 Au         4.1623000000        4.3256000000        0.0000000000
 Au         9.1572000000        4.3256000000        0.0000000000
 Au         6.6598000000        5.7675000000        0.0000000000
 Au        11.6546000000        5.7675000000        0.0000000000
 Au         9.1572000000        7.2094000000        0.0000000000
 Au        14.1520000000        7.2094000000        0.0000000000
 Au         3.3299000000        0.0000000000        2.3546000000
 Au         8.3247000000        0.0000000000        2.3546000000
 Au         5.8273000000        1.4419000000        2.3546000000
 Au        10.8221000000        1.4419000000        2.3546000000
 Au         8.3247000000        2.8838000000        2.3546000000
 Au        13.3195000000        2.8838000000        2.3546000000
 Au         5.8273000000        4.3256000000        2.3546000000
 Au        10.8221000000        4.3256000000        2.3546000000
 Au         8.3247000000        5.7675000000        2.3546000000
 Au        13.3195000000        5.7675000000        2.3546000000
 Au        10.8221000000        7.2094000000        2.3546000000
 Au        15.8169000000        7.2094000000        2.3546000000
 Au         0.0000000000        0.0000000000        4.7091000000
 Au         4.9948000000        0.0000000000        4.7091000000
 Au         2.4974000000        1.4419000000        4.7091000000
 Au         7.4922000000        1.4419000000        4.7091000000
 Au         4.9948000000        2.8838000000        4.7091000000
 Au         9.9896000000        2.8838000000        4.7091000000
 Au         2.4974000000        4.3256000000        4.7091000000
 Au         7.4922000000        4.3256000000        4.7091000000
 Au         4.9948000000        5.7675000000        4.7091000000
 Au         9.9896000000        5.7675000000        4.7091000000
 Au         7.4922000000        7.2094000000        4.7091000000
 Au        12.4870000000        7.2094000000        4.7091000000
  H         7.2104591245        5.4679044895        9.2667188216
  C         8.0439628484        5.3632627734        9.9630382587
  C         7.9644892279        5.9490037338       11.2160831917
  H         7.0726395521        6.5124090906       11.4875995447
  C         9.0318949481        5.8421310046       12.1319405790
  N         8.9875893062        6.5374464778       13.3500248988
  C        10.1840473688        5.1303066996       11.7426179297
  H        11.0277153047        5.0467212382       12.4264524727
  C        10.2627159622        4.5456084509       10.4874074493
  H        11.1667554960        4.0038411290       10.2048724785
  C         9.1959577354        4.6462109697        9.5650707209
  N         9.2597555701        4.0379327014        8.3338279817
  H         8.5911532678        4.2953495648        7.6125056719
  H        10.1586165845        3.7272870513        7.9783127546
  C         4.8650133644        7.9370079251       16.7560620236
  C         5.5622775680        9.0232491812       17.4131163172
  C         6.6720357976        9.4057827937       16.5623941336
  C         6.6591543660        8.5750699262       15.3859711528
  C         5.5304330803        7.6734123709       15.4961401209
  C         5.6795618794        6.3519231438       15.0594553848
  C         6.8767002398        5.9492140147       14.3790638990
  C         7.7907325200        6.9356567898       13.9915166222
  C         7.8451373910        8.1725597443       14.7457108408
  C         9.1432225993        8.4955568421       15.3612012907
  C         9.1291311280        9.3046746379       16.5245972419
  C         7.8912940240        9.7788000907       17.1169761893
  C         8.0380471570        9.8131196132       18.5627995423
  C         6.9726182315        9.4418328010       19.3897226973
  C         5.7115635328        9.0312257069       18.8008271383
  C         5.1767459694        7.9434863319       19.5978176902
  C         6.1024805322        7.6829315960       20.6836641424
  C         7.2119596934        8.6138505798       20.5588647861
  C         8.5112184250        8.1976282615       20.8652330826
  C         9.6166350381        8.5956001924       20.0128505343
  C         9.3782590547        9.3803023859       18.8788980794
  C        10.0486181734        9.0803722812       17.6258275891
  C        10.9553649883        8.0309097039       17.5711970902
  C        10.9788240242        7.1878222588       16.4044088189
  C        10.1571216666        7.4292555205       15.2890274799
  C         9.8209557883        6.2825453555       14.4656896814
  C         9.7844057599        5.0163772471       15.0615648342
  C         8.5695740509        4.1783792725       15.1755159018
  C         7.2522368934        4.6013963474       14.8652867867
  C         6.1588340490        4.1791866576       15.7486285552
  C         6.3782876803        3.3680023606       16.8662912016
  C         7.7143016547        2.9365836376       17.1816306436
  C         8.7739618732        3.3417134859       16.3653668106
  C        10.0203647835        3.7140146953       16.9993036486
  C        10.5985579747        4.7764632236       16.2182685487
  C        11.2535208565        5.8379686242       16.8480579016
  C        11.3742644915        5.8498052808       18.2912112149
  C        11.2091793485        7.2151764137       18.7432789630
  C        10.5490416865        7.4855947264       19.9425544362
  C        10.0150084988        6.3950549634       20.7393029326
  C         8.7547400750        6.8339689414       21.3092107783
  C         7.6867158644        5.9355743007       21.4213564685
  C         6.3371674405        6.3679017479       21.1030065576
  C         5.6567649182        5.2658525561       20.4461877430
  C         6.5867976241        4.1540618508       20.3524584832
  C         7.8390873607        4.5659700035       20.9618117336
  C         9.0529184950        4.1435946074       20.4098529938
  C        10.1632229182        5.0736887503       20.2974298355
  C        10.8530883092        4.7987112939       19.0510436756
  C        10.1634815480        3.7076312248       18.3887008909
  C         9.0562584250        3.3010841045       19.2276344396
  C         7.8544562224        2.9171322918       18.6300777381
  C         6.5972342888        3.3476174814       19.2078217514
  C         5.6817954164        3.6208727604       18.1171397021
  C         4.7742201555        4.6737195302       18.2180747233
  C         4.7664716113        5.5179854639       19.3978292206
  C         4.5229781562        6.8812040784       18.9639488290
  C         4.3726876526        6.8761369994       17.5219879781
  C         4.5313556901        5.5100527119       17.0613727358
  C         5.1973851211        5.2553725970       15.8608685466