    109
 i =      111, E =     -1594.2404634331
 Au         1.6649000000        0.0000000000        0.0000000000
 Au         6.6598000000        0.0000000000        0.0000000000
 Au         4.1623000000        1.4419000000        0.0000000000
 Au         9.1572000000        1.4419000000        0.0000000000
 Au         6.6598000000        2.8838000000        0.0000000000
 Au        11.6546000000        2.8838000000        0.0000000000
 Au         4.1623000000        4.3256000000        0.0000000000
 Au         9.1572000000        4.3256000000        0.0000000000
 Au         6.6598000000        5.7675000000        0.0000000000
 Au        11.6546000000        5.7675000000        0.0000000000
 Au         9.1572000000        7.2094000000        0.0000000000
 Au        14.1520000000        7.2094000000        0.0000000000
 Au         3.3299000000        0.0000000000        2.3546000000
 Au         8.3247000000        0.0000000000        2.3546000000
 Au         5.8273000000        1.4419000000        2.3546000000
 Au        10.8221000000        1.4419000000        2.3546000000
 Au         8.3247000000        2.8838000000        2.3546000000
 Au        13.3195000000        2.8838000000        2.3546000000
 Au         5.8273000000        4.3256000000        2.3546000000
 Au        10.8221000000        4.3256000000        2.3546000000
 Au         8.3247000000        5.7675000000        2.3546000000
 Au        13.3195000000        5.7675000000        2.3546000000
 Au        10.8221000000        7.2094000000        2.3546000000
 Au        15.8169000000        7.2094000000        2.3546000000
 Au         0.0000000000        0.0000000000        4.7091000000
 Au         4.9948000000        0.0000000000        4.7091000000
 Au         2.4974000000        1.4419000000        4.7091000000
 Au         7.4922000000        1.4419000000        4.7091000000
 Au         4.9948000000        2.8838000000        4.7091000000
 Au         9.9896000000        2.8838000000        4.7091000000
 Au         2.4974000000        4.3256000000        4.7091000000
 Au         7.4922000000        4.3256000000        4.7091000000
 Au         4.9948000000        5.7675000000        4.7091000000
 Au         9.9896000000        5.7675000000        4.7091000000
 Au         7.4922000000        7.2094000000        4.7091000000
 Au        12.4870000000        7.2094000000        4.7091000000
  H         7.3634092767        5.6959951995        8.8163973380
  C         8.1871384700        5.5674742707        9.5210193660
  C         8.0932163730        6.0771804667       10.7883006151
  H         7.1962799085        6.6091761371       11.1042914156
  C         9.1742398878        5.9297012802       11.7076364126
  N         9.0822411887        6.4742498427       12.9631707104
  C        10.3676054507        5.2745853072       11.2844700761
  H        11.2011134835        5.1858464068       11.9805150839
  C        10.4620882786        4.7647232688       10.0170131697
  H        11.3680691726        4.2626255464        9.6777831248
  C         9.3688756965        4.8581587676        9.0709341465
  N         9.5112767429        4.2953502643        7.8852040865
  H         8.6548250575        4.4274033895        7.3233771352
  C         4.9859321692        7.8622387614       16.3918701120
  C         5.6856508087        8.9457746247       17.0501413951
  C         6.7891674014        9.3354736751       16.1944671673
  C         6.7701851159        8.5117474680       15.0139447400
  C         5.6447114657        7.6061878171       15.1270673786
  C         5.7908267122        6.2869237940       14.6805849653
  C         6.9826433839        5.8905294787       13.9893659126
  C         7.8861684284        6.8869767578       13.5994646220
  C         7.9535614715        8.1158442761       14.3630708986
  C         9.2549168586        8.4371521033       14.9707624747
  C         9.2464043174        9.2395465439       16.1400610898
  C         8.0117448355        9.7076426336       16.7431598440
  C         8.1677155667        9.7351961853       18.1881532414
  C         7.1083151012        9.3563463511       19.0198017652
  C         5.8446216789        8.9458398032       18.4368152896
  C         5.3171086967        7.8526384060       19.2315748066
  C         6.2498356452        7.5882779229       20.3097228973
  C         7.3566451150        8.5219244934       20.1825601571
  C         8.6584818943        8.1064766937       20.4777985858
  C         9.7573176733        8.5120240486       19.6205557003
  C         9.5105120011        9.3033116328       18.4930260338
  C        10.1731515714        9.0112406056       17.2338836595
  C        11.0824026433        7.9640210926       17.1677822754
  C        11.1000415773        7.1276385373       15.9968105687
  C        10.2704981258        7.3740504216       14.8872716538
  C         9.9433161654        6.2282450033       14.0612865718
  C         9.9053080878        4.9570601880       14.6490082248
  C         8.6895588197        4.1206163810       14.7675470595
  C         7.3686094399        4.5426457757       14.4680118972
  C         6.2813218872        4.1118720493       15.3553066792
  C         6.5102225035        3.2954467159       16.4669589724
  C         7.8494613166        2.8649238183       16.7712519787
  C         8.9032205023        3.2760385302       15.9506073126
  C        10.1528350647        3.6466792721       16.5785126398
  C        10.7257736098        4.7136703298       15.7993254690
  C        11.3797072595        5.7754463031       16.4312769501
  C        11.5105585019        5.7798201489       17.8734565290
  C        11.3451813852        7.1420917705       18.3336237225
  C        10.6911417827        7.4041149291       19.5379858374
  C        10.1646594327        6.3083554343       20.3324048149
  C         8.9078315662        6.7410953197       20.9127606196
  C         7.8423020791        5.8399832499       21.0271052885
  C         6.4905612785        6.2711647180       20.7199739505
  C         5.8083148457        5.1716444450       20.0609322556
  C         6.7397020008        4.0620668902       19.9549857542
  C         7.9948537445        4.4735441084       20.5584353580
  C         9.2059848611        4.0564374101       19.9971180078
  C        10.3136663339        4.9893146106       19.8827812380
  C        10.9956783488        4.7234098459       18.6308870390
  C        10.3036810600        3.6343951576       17.9666101523
  C         9.2030777575        3.2206198754       18.8103462406
  C         7.9982982750        2.8365593774       18.2183991347
  C         6.7440053469        3.2611446472       18.8064231475
  C         5.8209363152        3.5385315915       17.7235320983
  C         4.9118303195        4.5892955675       17.8363742385
  C         4.9099654023        5.4273185918       19.0205348426
  C         4.6608811069        6.7924116226       18.5957913768
  C         4.5019251307        6.7952999329       17.1554984780
  C         4.6605042314        5.4316369204       16.6861524515
  C         5.3180001006        5.1847432459       15.4797665609
