79
	Energy:      42.9839396
Au    0.0000000000    0.0000000000    0.0000000000    L3
Au    2.9200000000    0.0000000000    0.0000000000    L3
Au    5.8400000000    0.0000000000    0.0000000000    L3
Au    1.4600000000    2.5287941680    0.0000000000    L3
Au    4.3800000000    2.5287941680    0.0000000000    L3
Au    7.3000000000    2.5287941680    0.0000000000    L3
Au    2.9200000000    5.0575883360    0.0000000000    L3
Au    5.8400000000    5.0575883360    0.0000000000    L3
Au    8.7600000000    5.0575883360    0.0000000000    L3
Au    1.4600000000    0.8429312920    2.3841700720    L3
Au    4.3800000000    0.8429312920    2.3841700720    L3
Au    7.3000000000    0.8429312920    2.3841700720    L3
Au    2.9200000000    3.3717254600    2.3841700720    L3
Au    5.8400000000    3.3717254600    2.3841700720    L3
Au    8.7600000000    3.3717254600    2.3841700720    L3
Au    4.3800000000    5.9005196280    2.3841700720    L3
Au    7.3000000000    5.9005196280    2.3841700720    L3
Au    10.2200000000    5.9005196280    2.3841700720    L3
Au    0.0000000000    1.6858628760    4.7683401440    L3
Au    2.9200000000    1.6858628760    4.7683401440    L3
Au    5.8400000000    1.6858628760    4.7683401440    L3
Au    1.4600000000    4.2146570440    4.7683401440    L3
Au    4.3800000000    4.2146570440    4.7683401440    L3
Au    7.3000000000    4.2146570440    4.7683401440    L3
Au    2.9200000000    6.7434512120    4.7683401440    L3
Au    5.8400000000    6.7434512120    4.7683401440    L3
Au    8.7600000000    6.7434512120    4.7683401440    L3
C    6.33596    4.137040000000001    16.225330144    S
C    6.45719    5.0305    15.159200144    S
C    6.23805    4.60187    13.844390144    S
C    5.90628    3.25625    13.569360144    S
C    5.98489    2.81141    15.976780144    S
C    5.77026    2.3791999999999995    14.667800144    S
C    5.88411    3.24624    10.825220144    S
H    6.3111    5.3558    13.093010143999999    S
S    6.6118500000000004    4.692499999999999    17.903980144    S
H    5.87605    2.1121399999999997    16.796840144    S
H    5.49662    1.3428200000000001    14.506740143999998    S
H    6.71404    6.065200000000001    15.350310144    S
C    6.60888    4.42357    10.535920144    S
C    6.77005    4.85642    9.212540144    S
C    6.22964    4.12152    8.156830143999999    S
C    5.53141    2.94495    8.420330144    S
C    5.36387    2.51303    9.737960143999999    S
H    7.3265    5.763    9.009920143999999    S
H    7.08686    5.020479999999999    11.278670144    S
H    5.11815    2.36019    7.6084101440000005    S
H    4.81851    1.5926499999999995    9.910870144    S
S    6.44639    4.6758299999999995    6.468340143999999    S
C    5.6283    2.63231    12.202650144    S
H    4.5471    2.3717200000000003    12.241410144    S
H    6.19275    1.6736999999999997    12.171660143999999    S
Au    8.7600000000    6.7434512120    19.70398    R0
Au    5.8400000000    6.7434512120    19.70398    R0
Au    2.9200000000    6.7434512120    19.70398    R0
Au    7.3000000000    4.2146570440    19.70398    R0
Au    4.3800000000    4.2146570440    19.70398    R0
Au    1.4600000000    4.2146570440    19.70398    R0
Au    5.8400000000    1.6858628760    19.70398    R0
Au    2.9200000000    1.6858628760    19.70398    R0
Au    0.0000000000    1.6858628760    19.70398    R0
Au    10.2200000000    5.9005196280    22.088150072000005    R0
Au    7.3000000000    5.9005196280    22.088150072000005    R0
Au    4.3800000000    5.9005196280    22.088150072000005    R0
Au    8.7600000000    3.3717254600    22.088150072000005    R0
Au    5.8400000000    3.3717254600    22.088150072000005    R0
Au    2.9200000000    3.3717254600    22.088150072000005    R0
Au    7.3000000000    0.8429312920    22.088150072000005    R0
Au    4.3800000000    0.8429312920    22.088150072000005    R0
Au    1.4600000000    0.8429312920    22.088150072000005    R0
Au    8.7600000000    5.0575883360    24.472320144    R0
Au    5.8400000000    5.0575883360    24.472320144    R0
Au    2.9200000000    5.0575883360    24.472320144    R0
Au    7.3000000000    2.5287941680    24.472320144    R0
Au    4.3800000000    2.5287941680    24.472320144    R0
Au    1.4600000000    2.5287941680    24.472320144    R0
Au    5.8400000000    0.0000000000    24.472320144    R0
Au    2.9200000000    0.0000000000    24.472320144    R0
Au    0.0000000000    0.0000000000    24.472320144    R0
