     241
 i =       71, E =     -1888.0436785968
 Au         0.0000000000        0.0000000000        0.0000000000 L3
 Au         2.9200000000        0.0000000000        0.0000000000 L3
 Au         5.8400000000        0.0000000000        0.0000000000 L3
 Au         1.4600000000        2.5287941680        0.0000000000 L3
 Au         4.3800000000        2.5287941680        0.0000000000 L3
 Au         7.3000000000        2.5287941680        0.0000000000 L3
 Au         2.9200000000        5.0575883360        0.0000000000 L3
 Au         5.8400000000        5.0575883360        0.0000000000 L3
 Au         8.7600000000        5.0575883360        0.0000000000 L3
 Au         1.4600000000        0.8429312920        2.3841700720 L3
 Au         4.3800000000        0.8429312920        2.3841700720 L3
 Au         7.3000000000        0.8429312920        2.3841700720 L3
 Au         2.9200000000        3.3717254600        2.3841700720 L3
 Au         5.8400000000        3.3717254600        2.3841700720 L3
 Au         8.7600000000        3.3717254600        2.3841700720 L3
 Au         4.3800000000        5.9005196280        2.3841700720 L3
 Au         7.3000000000        5.9005196280        2.3841700720 L3
 Au        10.2200000000        5.9005196280        2.3841700720 L3
 Au         0.0000000000        1.6858628760        4.7683401440 L3
 Au         2.9200000000        1.6858628760        4.7683401440 L3
 Au         5.8400000000        1.6858628760        4.7683401440 L3
 Au         1.4600000000        4.2146570440        4.7683401440 L3
 Au         4.3800000000        4.2146570440        4.7683401440 L3
 Au         7.3000000000        4.2146570440        4.7683401440 L3
 Au         2.9200000000        6.7434512120        4.7683401440 L3
 Au         5.8400000000        6.7434512120        4.7683401440 L3
 Au         8.7600000000        6.7434512120        4.7683401440 L3
 Au         0.0000000000        0.0000000000        7.1525099240 L2
 Au         2.9200000000        0.0000000000        7.1525099240 L2
 Au         5.8400000000        0.0000000000        7.1525099240 L2
 Au         1.4600000000        2.5287941680        7.1525099240 L2
 Au         4.3800000000        2.5287941680        7.1525099240 L2
 Au         7.3000000000        2.5287941680        7.1525099240 L2
 Au         2.9200000000        5.0575883360        7.1525099240 L2
 Au         5.8400000000        5.0575883360        7.1525099240 L2
 Au         8.7600000000        5.0575883360        7.1525099240 L2
 Au         1.4600000000        0.8429312920        9.5366799960 L2
 Au         4.3800000000        0.8429312920        9.5366799960 L2
 Au         7.3000000000        0.8429312920        9.5366799960 L2
 Au         2.9200000000        3.3717254600        9.5366799960 L2
 Au         5.8400000000        3.3717254600        9.5366799960 L2
 Au         8.7600000000        3.3717254600        9.5366799960 L2
 Au         4.3800000000        5.9005196280        9.5366799960 L2
 Au         7.3000000000        5.9005196280        9.5366799960 L2
 Au        10.2200000000        5.9005196280        9.5366799960 L2
 Au         0.0000000000        1.6858628760       11.9208500680 L2
 Au         2.9200000000        1.6858628760       11.9208500680 L2
 Au         5.8400000000        1.6858628760       11.9208500680 L2
 Au         1.4600000000        4.2146570440       11.9208500680 L2
 Au         4.3800000000        4.2146570440       11.9208500680 L2
 Au         7.3000000000        4.2146570440       11.9208500680 L2
 Au         2.9200000000        6.7434512120       11.9208500680 L2
 Au         5.8400000000        6.7434512120       11.9208500680 L2
 Au         8.7600000000        6.7434512120       11.9208500680 L2
 Au         0.0000000000        0.0000000000       14.3050198480 L1
 Au         2.9200000000        0.0000000000       14.3050198480 L1
 Au         5.8400000000        0.0000000000       14.3050198480 L1
 Au         1.4600000000        2.5287941680       14.3050198480 L1
 Au         4.3800000000        2.5287941680       14.3050198480 L1
 Au         7.3000000000        2.5287941680       14.3050198480 L1
 Au         2.9200000000        5.0575883360       14.3050198480 L1
 Au         5.8400000000        5.0575883360       14.3050198480 L1
 Au         8.7600000000        5.0575883360       14.3050198480 L1
 Au         1.4600000000        0.8429312920       16.6891899200 L1
 Au         4.3800000000        0.8429312920       16.6891899200 L1
 Au         7.3000000000        0.8429312920       16.6891899200 L1
 Au         2.9200000000        3.3717254600       16.6891899200 L1
 Au         5.8400000000        3.3717254600       16.6891899200 L1
 Au         8.7600000000        3.3717254600       16.6891899200 L1
 Au         4.3800000000        5.9005196280       16.6891899200 L1
 Au         7.3000000000        5.9005196280       16.6891899200 L1
 Au        10.2200000000        5.9005196280       16.6891899200 L1
 Au         0.0000000000        1.6858628760       19.0733599920 L1
 Au         2.9200000000        1.6858628760       19.0733599920 L1
 Au         5.8400000000        1.6858628760       19.0733599920 L1
 Au         1.4600000000        4.2146570440       19.0733599920 L1
 Au         4.3800000000        4.2146570440       19.0733599920 L1
 Au         7.3000000000        4.2146570440       19.0733599920 L1
 Au         2.9200000000        6.7434512120       19.0733599920 L1
 Au         5.8400000000        6.7434512120       19.0733599920 L1
 Au         8.7600000000        6.7434512120       19.0733599920 L1
Au    0.0000000000    0.0000000000    21.457530064    L0
Au    2.9200000000    0.0000000000    21.457530064    L0
Au    5.8400000000    0.0000000000    21.457530064    L0
Au    1.4600000000    2.5287941680    21.457530064    L0
Au    4.3800000000    2.5287941680    21.457530064    L0
Au    7.3000000000    2.5287941680    21.457530064    L0
Au    2.9200000000    5.0575883360    21.457530064    L0
Au    5.8400000000    5.0575883360    21.457530064    L0
Au    8.7600000000    5.0575883360    21.457530064    L0
Au    1.4600000000    0.8429312920    23.841700136    L0
Au    4.3800000000    0.8429312920    23.841700136    L0
Au    7.3000000000    0.8429312920    23.841700136    L0
Au    2.9200000000    3.3717254600    23.841700136    L0
Au    5.8400000000    3.3717254600    23.841700136    L0
Au    8.7600000000    3.3717254600    23.841700136    L0
Au    4.3800000000    5.9005196280    23.841700136    L0
Au    7.3000000000    5.9005196280    23.841700136    L0
Au    10.2200000000    5.9005196280    23.841700136    L0
Au    0.0000000000    1.6858628760    26.225870208    L0
Au    2.9200000000    1.6858628760    26.225870208    L0
Au    5.8400000000    1.6858628760    26.225870208    L0
Au    1.4600000000    4.2146570440    26.225870208    L0
Au    4.3800000000    4.2146570440    26.225870208    L0
Au    7.3000000000    4.2146570440    26.225870208    L0
Au    2.9200000000    6.7434512120    26.225870208    L0
Au    5.8400000000    6.7434512120    26.225870208    L0
Au    8.7600000000    6.7434512120    26.225870208    L0
C    5.7669754814    3.6078376253    37.500666386999995    S
C    5.0368554867    4.1356420958    36.4150030066    S
C    5.0162153918    3.4797986943    35.184733551    S
C    5.7107557396    2.2747561735    34.991098277700004    S
C    6.4678852408    2.4049464270    37.3186928806    S
C    6.4349716012    1.7594462217    36.0808336034    S
C    5.6572343735    2.2450454834    32.375665832    S
H    4.4480108429    3.9140094747    34.3598327662    S
S    5.8332837580    4.6085288014    38.9750506642    S
H    7.0447658321    1.9814979237    38.1419570539    S
H    6.9862852647    0.8239818292    35.9622177248    S
H    4.4896540365    5.0701767359    36.5421323475    S
C    6.7816142037    3.0016269816    32.000347117000004    S
C    6.8480666236    3.6375167312    30.762170543899998    S
C    5.7738699992    3.5463084912    29.852725951700002    S
C    4.6521797891    2.7792537218    30.2068132003    S
C    4.6034908964    2.1462730879    31.4518081629    S
H    7.7298799178    4.2202825107    30.4947782138    S
H    7.6242319734    3.0928488426    32.6888301049    S
H    3.8157721454    2.6903515253    29.5129597299    S
H    3.7212354697    1.5548181300    31.7065314538    S
S    5.8110679856    4.5901948415    28.4093486664    S
C    5.6174248463    1.4852215388    33.6916326721    S
H    4.6843720064    0.8964753403    33.719489962    S
H    6.4303428173    0.7398036313    33.6881851684    S
Au    8.7600000000    6.7434512120    41.161510064    R0
Au    5.8400000000    6.7434512120    41.161510064    R0
Au    2.9200000000    6.7434512120    41.161510064    R0
Au    7.3000000000    4.2146570440    41.161510064    R0
Au    4.3800000000    4.2146570440    41.161510064    R0
Au    1.4600000000    4.2146570440    41.161510064    R0
Au    5.8400000000    1.6858628760    41.161510064    R0
Au    2.9200000000    1.6858628760    41.161510064    R0
Au    0.0000000000    1.6858628760    41.161510064    R0
Au    10.2200000000    5.9005196280    43.545680136    R0
Au    7.3000000000    5.9005196280    43.545680136    R0
Au    4.3800000000    5.9005196280    43.545680136    R0
Au    8.7600000000    3.3717254600    43.545680136    R0
Au    5.8400000000    3.3717254600    43.545680136    R0
Au    2.9200000000    3.3717254600    43.545680136    R0
Au    7.3000000000    0.8429312920    43.545680136    R0
Au    4.3800000000    0.8429312920    43.545680136    R0
Au    1.4600000000    0.8429312920    43.545680136    R0
Au    8.7600000000    5.0575883360    45.929850208000005    R0
Au    5.8400000000    5.0575883360    45.929850208000005    R0
Au    2.9200000000    5.0575883360    45.929850208000005    R0
Au    7.3000000000    2.5287941680    45.929850208000005    R0
Au    4.3800000000    2.5287941680    45.929850208000005    R0
Au    1.4600000000    2.5287941680    45.929850208000005    R0
Au    5.8400000000    0.0000000000    45.929850208000005    R0
Au    2.9200000000    0.0000000000    45.929850208000005    R0
Au    0.0000000000    0.0000000000    45.929850208000005    R0
Au    8.7600000000    6.7434512120    48.31402028    R1
Au    5.8400000000    6.7434512120    48.31402028    R1
Au    2.9200000000    6.7434512120    48.31402028    R1
Au    7.3000000000    4.2146570440    48.31402028    R1
Au    4.3800000000    4.2146570440    48.31402028    R1
Au    1.4600000000    4.2146570440    48.31402028    R1
Au    5.8400000000    1.6858628760    48.31402028    R1
Au    2.9200000000    1.6858628760    48.31402028    R1
Au    0.0000000000    1.6858628760    48.31402028    R1
Au    10.2200000000    5.9005196280    50.698190352000005    R1
Au    7.3000000000    5.9005196280    50.698190352000005    R1
Au    4.3800000000    5.9005196280    50.698190352000005    R1
Au    8.7600000000    3.3717254600    50.698190352000005    R1
Au    5.8400000000    3.3717254600    50.698190352000005    R1
Au    2.9200000000    3.3717254600    50.698190352000005    R1
Au    7.3000000000    0.8429312920    50.698190352000005    R1
Au    4.3800000000    0.8429312920    50.698190352000005    R1
Au    1.4600000000    0.8429312920    50.698190352000005    R1
Au    8.7600000000    5.0575883360    53.082360424    R1
Au    5.8400000000    5.0575883360    53.082360424    R1
Au    2.9200000000    5.0575883360    53.082360424    R1
Au    7.3000000000    2.5287941680    53.082360424    R1
Au    4.3800000000    2.5287941680    53.082360424    R1
Au    1.4600000000    2.5287941680    53.082360424    R1
Au    5.8400000000    0.0000000000    53.082360424    R1
Au    2.9200000000    0.0000000000    53.082360424    R1
Au    0.0000000000    0.0000000000    53.082360424    R1
Au    8.7600000000    6.7434512120    55.466530204    R2
Au    5.8400000000    6.7434512120    55.466530204    R2
Au    2.9200000000    6.7434512120    55.466530204    R2
Au    7.3000000000    4.2146570440    55.466530204    R2
Au    4.3800000000    4.2146570440    55.466530204    R2
Au    1.4600000000    4.2146570440    55.466530204    R2
Au    5.8400000000    1.6858628760    55.466530204    R2
Au    2.9200000000    1.6858628760    55.466530204    R2
Au    0.0000000000    1.6858628760    55.466530204    R2
Au    10.2200000000    5.9005196280    57.850700276000005    R2
Au    7.3000000000    5.9005196280    57.850700276000005    R2
Au    4.3800000000    5.9005196280    57.850700276000005    R2
Au    8.7600000000    3.3717254600    57.850700276000005    R2
Au    5.8400000000    3.3717254600    57.850700276000005    R2
Au    2.9200000000    3.3717254600    57.850700276000005    R2
Au    7.3000000000    0.8429312920    57.850700276000005    R2
Au    4.3800000000    0.8429312920    57.850700276000005    R2
Au    1.4600000000    0.8429312920    57.850700276000005    R2
Au    8.7600000000    5.0575883360    60.234870348    R2
Au    5.8400000000    5.0575883360    60.234870348    R2
Au    2.9200000000    5.0575883360    60.234870348    R2
Au    7.3000000000    2.5287941680    60.234870348    R2
Au    4.3800000000    2.5287941680    60.234870348    R2
Au    1.4600000000    2.5287941680    60.234870348    R2
Au    5.8400000000    0.0000000000    60.234870348    R2
Au    2.9200000000    0.0000000000    60.234870348    R2
Au    0.0000000000    0.0000000000    60.234870348    R2
Au    8.7600000000    6.7434512120    62.619040128    R3
Au    5.8400000000    6.7434512120    62.619040128    R3
Au    2.9200000000    6.7434512120    62.619040128    R3
Au    7.3000000000    4.2146570440    62.619040128    R3
Au    4.3800000000    4.2146570440    62.619040128    R3
Au    1.4600000000    4.2146570440    62.619040128    R3
Au    5.8400000000    1.6858628760    62.619040128    R3
Au    2.9200000000    1.6858628760    62.619040128    R3
Au    0.0000000000    1.6858628760    62.619040128    R3
Au    10.2200000000    5.9005196280    65.00321020000001    R3
Au    7.3000000000    5.9005196280    65.00321020000001    R3
Au    4.3800000000    5.9005196280    65.00321020000001    R3
Au    8.7600000000    3.3717254600    65.00321020000001    R3
Au    5.8400000000    3.3717254600    65.00321020000001    R3
Au    2.9200000000    3.3717254600    65.00321020000001    R3
Au    7.3000000000    0.8429312920    65.00321020000001    R3
Au    4.3800000000    0.8429312920    65.00321020000001    R3
Au    1.4600000000    0.8429312920    65.00321020000001    R3
Au    8.7600000000    5.0575883360    67.387380272    R3
Au    5.8400000000    5.0575883360    67.387380272    R3
Au    2.9200000000    5.0575883360    67.387380272    R3
Au    7.3000000000    2.5287941680    67.387380272    R3
Au    4.3800000000    2.5287941680    67.387380272    R3
Au    1.4600000000    2.5287941680    67.387380272    R3
Au    5.8400000000    0.0000000000    67.387380272    R3
Au    2.9200000000    0.0000000000    67.387380272    R3
Au    0.0000000000    0.0000000000    67.387380272    R3
