      84
 i =       21, E =     -1959.6943501172
 Au         0.0000000000        0.0000000000        0.0000000000
 Au         2.9200000000        0.0000000000        0.0000000000
 Au         5.8400000000        0.0000000000        0.0000000000
 Au         1.4600000000        2.5287941680        0.0000000000
 Au         4.3800000000        2.5287941680        0.0000000000
 Au         7.3000000000        2.5287941680        0.0000000000
 Au         2.9200000000        5.0575883360        0.0000000000
 Au         5.8400000000        5.0575883360        0.0000000000
 Au         8.7600000000        5.0575883360        0.0000000000
 Au         1.4600000000        0.8429312920        2.3841700720
 Au         4.3800000000        0.8429312920        2.3841700720
 Au         7.3000000000        0.8429312920        2.3841700720
 Au         2.9200000000        3.3717254600        2.3841700720
 Au         5.8400000000        3.3717254600        2.3841700720
 Au         8.7600000000        3.3717254600        2.3841700720
 Au         4.3800000000        5.9005196280        2.3841700720
 Au         7.3000000000        5.9005196280        2.3841700720
 Au        10.2200000000        5.9005196280        2.3841700720
 Au         0.0000000000        1.6858628760        4.7683401440
 Au         2.9200000000        1.6858628760        4.7683401440
 Au         5.8400000000        1.6858628760        4.7683401440
 Au         1.4600000000        4.2146570440        4.7683401440
 Au         4.3800000000        4.2146570440        4.7683401440
 Au         7.3000000000        4.2146570440        4.7683401440
 Au         2.9200000000        6.7434512120        4.7683401440
 Au         5.8400000000        6.7434512120        4.7683401440
 Au         8.7600000000        6.7434512120        4.7683401440
  C         5.1909426340        3.4195963691        8.3289008576
  C         6.0976068588        3.3642741952        9.4079376938
  C         5.7387413149        2.7410863235       10.6026060578
  C         4.4753440785        2.1481283358       10.7606474677
  C         3.9418763205        2.7897473519        8.4612052122
  C         3.5971127256        2.1713188857        9.6630908769
  C         4.0611286185        1.4818278247       12.0575167678
  N         4.5377884168        2.1890698939       13.2569374985
  H         2.9563084641        1.3614705569       12.0474842776
  H         4.4740481408        0.4563974629       12.0891018412
  C         3.9256458508        1.6264250383       14.4724955671
  H         4.2771022588        3.1765916715       13.1785239128
  C         4.3216460029        2.2951771982       15.7739884494
  H         4.2101655131        0.5663567635       14.5333524437
  H         2.8130940734        1.6361800043       14.4143848882
  C         4.3501244250        3.6822405592       15.9663946657
  C         4.6445485839        4.3047688118       17.1712676016
  C         4.9373157534        3.5150443754       18.3023048687
  C         4.5981028602        1.5567098798       16.9390508709
  C         4.9019666819        2.1161621648       18.1772459711
  F         4.5629641106        0.1935986627       16.8551173236
  F         4.0513481063        4.4879993469       14.8967459557
  H         7.0764690851        3.8350393480        9.3119049745
  H         6.4402590116        2.7244768815       11.4376883259
  H         4.6460447425        5.3916832736       17.2257599879
  H         5.1158481092        1.4616640818       19.0211100939
  S         5.6125164670        4.4901148999        6.9739268844
  H         3.2318633154        2.8150333792        7.6332826609
  H         2.6115108456        1.7095340186        9.7540706287
  S         5.4645828325        4.4158166914       19.7495072027
 Au         8.7600000000        6.7434512120       22.0568762043
 Au         5.8400000000        6.7434512120       22.0568762043
 Au         2.9200000000        6.7434512120       22.0568762043
 Au         7.3000000000        4.2146570440       22.0568762043
 Au         4.3800000000        4.2146570440       22.0568762043
 Au         1.4600000000        4.2146570440       22.0568762043
 Au         5.8400000000        1.6858628760       22.0568762043
 Au         2.9200000000        1.6858628760       22.0568762043
 Au         0.0000000000        1.6858628760       22.0568762043
 Au        10.2200000000        5.9005196280       24.4410462763
 Au         7.3000000000        5.9005196280       24.4410462763
 Au         4.3800000000        5.9005196280       24.4410462763
 Au         8.7600000000        3.3717254600       24.4410462763
 Au         5.8400000000        3.3717254600       24.4410462763
 Au         2.9200000000        3.3717254600       24.4410462763
 Au         7.3000000000        0.8429312920       24.4410462763
 Au         4.3800000000        0.8429312920       24.4410462763
 Au         1.4600000000        0.8429312920       24.4410462763
 Au         8.7600000000        5.0575883360       26.8252163483
 Au         5.8400000000        5.0575883360       26.8252163483
 Au         2.9200000000        5.0575883360       26.8252163483
 Au         7.3000000000        2.5287941680       26.8252163483
 Au         4.3800000000        2.5287941680       26.8252163483
 Au         1.4600000000        2.5287941680       26.8252163483
 Au         5.8400000000        0.0000000000       26.8252163483
 Au         2.9200000000        0.0000000000       26.8252163483
 Au         0.0000000000        0.0000000000       26.8252163483
  Au         8.7600000000        6.7434512120       43.0553494000 R1
 Au         5.8400000000        6.7434512120       43.0553494000 R1
 Au         2.9200000000        6.7434512120       43.0553494000 R1
 Au         7.3000000000        4.2146570440       43.0553494000 R1
 Au         4.3800000000        4.2146570440       43.0553494000 R1
 Au         1.4600000000        4.2146570440       43.0553494000 R1
 Au         5.8400000000        1.6858628760       43.0553494000 R1
 Au         2.9200000000        1.6858628760       43.0553494000 R1
 Au         0.0000000000        1.6858628760       43.0553494000 R1
 Au        10.2200000000        5.9005196280       45.4395194720 R1
 Au         7.3000000000        5.9005196280       45.4395194720 R1
 Au         4.3800000000        5.9005196280       45.4395194720 R1
 Au         8.7600000000        3.3717254600       45.4395194720 R1
 Au         5.8400000000        3.3717254600       45.4395194720 R1
 Au         2.9200000000        3.3717254600       45.4395194720 R1
 Au         7.3000000000        0.8429312920       45.4395194720 R1
 Au         4.3800000000        0.8429312920       45.4395194720 R1
 Au         1.4600000000        0.8429312920       45.4395194720 R1
 Au         8.7600000000        5.0575883360       47.8236895440 R1
 Au         5.8400000000        5.0575883360       47.8236895440 R1
 Au         2.9200000000        5.0575883360       47.8236895440 R1
 Au         7.3000000000        2.5287941680       47.8236895440 R1
 Au         4.3800000000        2.5287941680       47.8236895440 R1
 Au         1.4600000000        2.5287941680       47.8236895440 R1
 Au         5.8400000000        0.0000000000       47.8236895440 R1
 Au         2.9200000000        0.0000000000       47.8236895440 R1
 Au         0.0000000000        0.0000000000       47.8236895440 R1
 Au         8.7600000000        6.7434512120       50.2078593240 R2
 Au         5.8400000000        6.7434512120       50.2078593240 R2
 Au         2.9200000000        6.7434512120       50.2078593240 R2
 Au         7.3000000000        4.2146570440       50.2078593240 R2
 Au         4.3800000000        4.2146570440       50.2078593240 R2
 Au         1.4600000000        4.2146570440       50.2078593240 R2
 Au         5.8400000000        1.6858628760       50.2078593240 R2
 Au         2.9200000000        1.6858628760       50.2078593240 R2
 Au         0.0000000000        1.6858628760       50.2078593240 R2
 Au        10.2200000000        5.9005196280       52.5920293960 R2
 Au         7.3000000000        5.9005196280       52.5920293960 R2
 Au         4.3800000000        5.9005196280       52.5920293960 R2
 Au         8.7600000000        3.3717254600       52.5920293960 R2
 Au         5.8400000000        3.3717254600       52.5920293960 R2
 Au         2.9200000000        3.3717254600       52.5920293960 R2
 Au         7.3000000000        0.8429312920       52.5920293960 R2
 Au         4.3800000000        0.8429312920       52.5920293960 R2
 Au         1.4600000000        0.8429312920       52.5920293960 R2
 Au         8.7600000000        5.0575883360       54.9761994680 R2
 Au         5.8400000000        5.0575883360       54.9761994680 R2
 Au         2.9200000000        5.0575883360       54.9761994680 R2
 Au         7.3000000000        2.5287941680       54.9761994680 R2
 Au         4.3800000000        2.5287941680       54.9761994680 R2
 Au         1.4600000000        2.5287941680       54.9761994680 R2
 Au         5.8400000000        0.0000000000       54.9761994680 R2
 Au         2.9200000000        0.0000000000       54.9761994680 R2
 Au         0.0000000000        0.0000000000       54.9761994680 R2
 Au         8.7600000000        6.7434512120       57.3603692480 R3
 Au         5.8400000000        6.7434512120       57.3603692480 R3
 Au         2.9200000000        6.7434512120       57.3603692480 R3
 Au         7.3000000000        4.2146570440       57.3603692480 R3
 Au         4.3800000000        4.2146570440       57.3603692480 R3
 Au         1.4600000000        4.2146570440       57.3603692480 R3
 Au         5.8400000000        1.6858628760       57.3603692480 R3
 Au         2.9200000000        1.6858628760       57.3603692480 R3
 Au         0.0000000000        1.6858628760       57.3603692480 R3
 Au        10.2200000000        5.9005196280       59.7445393200 R3
 Au         7.3000000000        5.9005196280       59.7445393200 R3
 Au         4.3800000000        5.9005196280       59.7445393200 R3
 Au         8.7600000000        3.3717254600       59.7445393200 R3
 Au         5.8400000000        3.3717254600       59.7445393200 R3
 Au         2.9200000000        3.3717254600       59.7445393200 R3
 Au         7.3000000000        0.8429312920       59.7445393200 R3
 Au         4.3800000000        0.8429312920       59.7445393200 R3
 Au         1.4600000000        0.8429312920       59.7445393200 R3
 Au         8.7600000000        5.0575883360       62.1287093920 R3
 Au         5.8400000000        5.0575883360       62.1287093920 R3
 Au         2.9200000000        5.0575883360       62.1287093920 R3
 Au         7.3000000000        2.5287941680       62.1287093920 R3
 Au         4.3800000000        2.5287941680       62.1287093920 R3
 Au         1.4600000000        2.5287941680       62.1287093920 R3
 Au         5.8400000000        0.0000000000       62.1287093920 R3
 Au         2.9200000000        0.0000000000       62.1287093920 R3
 Au         0.0000000000        0.0000000000       62.1287093920 R3
