      246
 i =       21, E =     -1959.6943501172
 Au         0.0000000000        0.0000000000        0.0000000000 L3
 Au         2.9200000000        0.0000000000        0.0000000000 L3
 Au         5.8400000000        0.0000000000        0.0000000000 L3
 Au         1.4600000000        2.5287941680        0.0000000000 L3
 Au         4.3800000000        2.5287941680        0.0000000000 L3
 Au         7.3000000000        2.5287941680        0.0000000000 L3
 Au         2.9200000000        5.0575883360        0.0000000000 L3
 Au         5.8400000000        5.0575883360        0.0000000000 L3
 Au         8.7600000000        5.0575883360        0.0000000000 L3
 Au         1.4600000000        0.8429312920        2.3841700720 L3
 Au         4.3800000000        0.8429312920        2.3841700720 L3
 Au         7.3000000000        0.8429312920        2.3841700720 L3
 Au         2.9200000000        3.3717254600        2.3841700720 L3
 Au         5.8400000000        3.3717254600        2.3841700720 L3
 Au         8.7600000000        3.3717254600        2.3841700720 L3
 Au         4.3800000000        5.9005196280        2.3841700720 L3
 Au         7.3000000000        5.9005196280        2.3841700720 L3
 Au        10.2200000000        5.9005196280        2.3841700720 L3
 Au         0.0000000000        1.6858628760        4.7683401440 L3
 Au         2.9200000000        1.6858628760        4.7683401440 L3
 Au         5.8400000000        1.6858628760        4.7683401440 L3
 Au         1.4600000000        4.2146570440        4.7683401440 L3
 Au         4.3800000000        4.2146570440        4.7683401440 L3
 Au         7.3000000000        4.2146570440        4.7683401440 L3
 Au         2.9200000000        6.7434512120        4.7683401440 L3
 Au         5.8400000000        6.7434512120        4.7683401440 L3
 Au         8.7600000000        6.7434512120        4.7683401440 L3
 Au         0.0000000000        0.0000000000        7.1525099240 L2
 Au         2.9200000000        0.0000000000        7.1525099240 L2
 Au         5.8400000000        0.0000000000        7.1525099240 L2
 Au         1.4600000000        2.5287941680        7.1525099240 L2
 Au         4.3800000000        2.5287941680        7.1525099240 L2
 Au         7.3000000000        2.5287941680        7.1525099240 L2
 Au         2.9200000000        5.0575883360        7.1525099240 L2
 Au         5.8400000000        5.0575883360        7.1525099240 L2
 Au         8.7600000000        5.0575883360        7.1525099240 L2
 Au         1.4600000000        0.8429312920        9.5366799960 L2
 Au         4.3800000000        0.8429312920        9.5366799960 L2
 Au         7.3000000000        0.8429312920        9.5366799960 L2
 Au         2.9200000000        3.3717254600        9.5366799960 L2
 Au         5.8400000000        3.3717254600        9.5366799960 L2
 Au         8.7600000000        3.3717254600        9.5366799960 L2
 Au         4.3800000000        5.9005196280        9.5366799960 L2
 Au         7.3000000000        5.9005196280        9.5366799960 L2
 Au        10.2200000000        5.9005196280        9.5366799960 L2
 Au         0.0000000000        1.6858628760       11.9208500680 L2
 Au         2.9200000000        1.6858628760       11.9208500680 L2
 Au         5.8400000000        1.6858628760       11.9208500680 L2
 Au         1.4600000000        4.2146570440       11.9208500680 L2
 Au         4.3800000000        4.2146570440       11.9208500680 L2
 Au         7.3000000000        4.2146570440       11.9208500680 L2
 Au         2.9200000000        6.7434512120       11.9208500680 L2
 Au         5.8400000000        6.7434512120       11.9208500680 L2
 Au         8.7600000000        6.7434512120       11.9208500680 L2
 Au         0.0000000000        0.0000000000       14.3050198480 L1
 Au         2.9200000000        0.0000000000       14.3050198480 L1
 Au         5.8400000000        0.0000000000       14.3050198480 L1
 Au         1.4600000000        2.5287941680       14.3050198480 L1
 Au         4.3800000000        2.5287941680       14.3050198480 L1
 Au         7.3000000000        2.5287941680       14.3050198480 L1
 Au         2.9200000000        5.0575883360       14.3050198480 L1
 Au         5.8400000000        5.0575883360       14.3050198480 L1
 Au         8.7600000000        5.0575883360       14.3050198480 L1
 Au         1.4600000000        0.8429312920       16.6891899200 L1
 Au         4.3800000000        0.8429312920       16.6891899200 L1
 Au         7.3000000000        0.8429312920       16.6891899200 L1
 Au         2.9200000000        3.3717254600       16.6891899200 L1
 Au         5.8400000000        3.3717254600       16.6891899200 L1
 Au         8.7600000000        3.3717254600       16.6891899200 L1
 Au         4.3800000000        5.9005196280       16.6891899200 L1
 Au         7.3000000000        5.9005196280       16.6891899200 L1
 Au        10.2200000000        5.9005196280       16.6891899200 L1
 Au         0.0000000000        1.6858628760       19.0733599920 L1
 Au         2.9200000000        1.6858628760       19.0733599920 L1
 Au         5.8400000000        1.6858628760       19.0733599920 L1
 Au         1.4600000000        4.2146570440       19.0733599920 L1
 Au         4.3800000000        4.2146570440       19.0733599920 L1
 Au         7.3000000000        4.2146570440       19.0733599920 L1
 Au         2.9200000000        6.7434512120       19.0733599920 L1
 Au         5.8400000000        6.7434512120       19.0733599920 L1
 Au         8.7600000000        6.7434512120       19.0733599920 L1
Au    0.0000000000    0.0000000000    21.457530064    L0
Au    2.9200000000    0.0000000000    21.457530064    L0
Au    5.8400000000    0.0000000000    21.457530064    L0
Au    1.4600000000    2.5287941680    21.457530064    L0
Au    4.3800000000    2.5287941680    21.457530064    L0
Au    7.3000000000    2.5287941680    21.457530064    L0
Au    2.9200000000    5.0575883360    21.457530064    L0
Au    5.8400000000    5.0575883360    21.457530064    L0
Au    8.7600000000    5.0575883360    21.457530064    L0
Au    1.4600000000    0.8429312920    23.841700136    L0
Au    4.3800000000    0.8429312920    23.841700136    L0
Au    7.3000000000    0.8429312920    23.841700136    L0
Au    2.9200000000    3.3717254600    23.841700136    L0
Au    5.8400000000    3.3717254600    23.841700136    L0
Au    8.7600000000    3.3717254600    23.841700136    L0
Au    4.3800000000    5.9005196280    23.841700136    L0
Au    7.3000000000    5.9005196280    23.841700136    L0
Au    10.2200000000    5.9005196280    23.841700136    L0
Au    0.0000000000    1.6858628760    26.225870208    L0
Au    2.9200000000    1.6858628760    26.225870208    L0
Au    5.8400000000    1.6858628760    26.225870208    L0
Au    1.4600000000    4.2146570440    26.225870208    L0
Au    4.3800000000    4.2146570440    26.225870208    L0
Au    7.3000000000    4.2146570440    26.225870208    L0
Au    2.9200000000    6.7434512120    26.225870208    L0
Au    5.8400000000    6.7434512120    26.225870208    L0
Au    8.7600000000    6.7434512120    26.225870208    L0
C    5.1909426340    3.4195963691    29.7864309216    S
C    6.0976068588    3.3642741952    30.865467757799998    S
C    5.7387413149    2.7410863235    32.0601361218    S
C    4.4753440785    2.1481283358    32.2181775317    S
C    3.9418763205    2.7897473519    29.9187352762    S
C    3.5971127256    2.1713188857    31.1206209409    S
C    4.0611286185    1.4818278247    33.5150468318    S
N    4.5377884168    2.1890698939    34.7144675625    S
H    2.9563084641    1.3614705569    33.5050143416    S
H    4.4740481408    0.4563974629    33.5466319052    S
C    3.9256458508    1.6264250383    35.9300256311    S
H    4.2771022588    3.1765916715    34.6360539768    S
C    4.3216460029    2.2951771982    37.2315185134    S
H    4.2101655131    0.5663567635    35.9908825077    S
H    2.8130940734    1.6361800043    35.8719149522    S
C    4.3501244250    3.6822405592    37.4239247297    S
C    4.6445485839    4.3047688118    38.628797665600004    S
C    4.9373157534    3.5150443754    39.7598349327    S
C    4.5981028602    1.5567098798    38.3965809349    S
C    4.9019666819    2.1161621648    39.6347760351    S
F    4.5629641106    0.1935986627    38.312647387599995    S
F    4.0513481063    4.4879993469    36.3542760197    S
H    7.0764690851    3.8350393480    30.7694350385    S
H    6.4402590116    2.7244768815    32.8952183899    S
H    4.6460447425    5.3916832736    38.6832900519    S
H    5.1158481092    1.4616640818    40.4786401579    S
S    5.6125164670    4.4901148999    28.4314569484    S
H    3.2318633154    2.8150333792    29.0908127249    S
H    2.6115108456    1.7095340186    31.2116006927    S
S    5.4645828325    4.4158166914    41.2070372667    S
Au    8.7600000000    6.7434512120    43.5144062683    R0
Au    5.8400000000    6.7434512120    43.5144062683    R0
Au    2.9200000000    6.7434512120    43.5144062683    R0
Au    7.3000000000    4.2146570440    43.5144062683    R0
Au    4.3800000000    4.2146570440    43.5144062683    R0
Au    1.4600000000    4.2146570440    43.5144062683    R0
Au    5.8400000000    1.6858628760    43.5144062683    R0
Au    2.9200000000    1.6858628760    43.5144062683    R0
Au    0.0000000000    1.6858628760    43.5144062683    R0
Au    10.2200000000    5.9005196280    45.898576340299996    R0
Au    7.3000000000    5.9005196280    45.898576340299996    R0
Au    4.3800000000    5.9005196280    45.898576340299996    R0
Au    8.7600000000    3.3717254600    45.898576340299996    R0
Au    5.8400000000    3.3717254600    45.898576340299996    R0
Au    2.9200000000    3.3717254600    45.898576340299996    R0
Au    7.3000000000    0.8429312920    45.898576340299996    R0
Au    4.3800000000    0.8429312920    45.898576340299996    R0
Au    1.4600000000    0.8429312920    45.898576340299996    R0
Au    8.7600000000    5.0575883360    48.2827464123    R0
Au    5.8400000000    5.0575883360    48.2827464123    R0
Au    2.9200000000    5.0575883360    48.2827464123    R0
Au    7.3000000000    2.5287941680    48.2827464123    R0
Au    4.3800000000    2.5287941680    48.2827464123    R0
Au    1.4600000000    2.5287941680    48.2827464123    R0
Au    5.8400000000    0.0000000000    48.2827464123    R0
Au    2.9200000000    0.0000000000    48.2827464123    R0
Au    0.0000000000    0.0000000000    48.2827464123    R0
Au    8.7600000000    6.7434512120    50.6669164843    R1
Au    5.8400000000    6.7434512120    50.6669164843    R1
Au    2.9200000000    6.7434512120    50.6669164843    R1
Au    7.3000000000    4.2146570440    50.6669164843    R1
Au    4.3800000000    4.2146570440    50.6669164843    R1
Au    1.4600000000    4.2146570440    50.6669164843    R1
Au    5.8400000000    1.6858628760    50.6669164843    R1
Au    2.9200000000    1.6858628760    50.6669164843    R1
Au    0.0000000000    1.6858628760    50.6669164843    R1
Au    10.2200000000    5.9005196280    53.05108655630001    R1
Au    7.3000000000    5.9005196280    53.05108655630001    R1
Au    4.3800000000    5.9005196280    53.05108655630001    R1
Au    8.7600000000    3.3717254600    53.05108655630001    R1
Au    5.8400000000    3.3717254600    53.05108655630001    R1
Au    2.9200000000    3.3717254600    53.05108655630001    R1
Au    7.3000000000    0.8429312920    53.05108655630001    R1
Au    4.3800000000    0.8429312920    53.05108655630001    R1
Au    1.4600000000    0.8429312920    53.05108655630001    R1
Au    8.7600000000    5.0575883360    55.4352566283    R1
Au    5.8400000000    5.0575883360    55.4352566283    R1
Au    2.9200000000    5.0575883360    55.4352566283    R1
Au    7.3000000000    2.5287941680    55.4352566283    R1
Au    4.3800000000    2.5287941680    55.4352566283    R1
Au    1.4600000000    2.5287941680    55.4352566283    R1
Au    5.8400000000    0.0000000000    55.4352566283    R1
Au    2.9200000000    0.0000000000    55.4352566283    R1
Au    0.0000000000    0.0000000000    55.4352566283    R1
Au    8.7600000000    6.7434512120    57.819426408300004    R2
Au    5.8400000000    6.7434512120    57.819426408300004    R2
Au    2.9200000000    6.7434512120    57.819426408300004    R2
Au    7.3000000000    4.2146570440    57.819426408300004    R2
Au    4.3800000000    4.2146570440    57.819426408300004    R2
Au    1.4600000000    4.2146570440    57.819426408300004    R2
Au    5.8400000000    1.6858628760    57.819426408300004    R2
Au    2.9200000000    1.6858628760    57.819426408300004    R2
Au    0.0000000000    1.6858628760    57.819426408300004    R2
Au    10.2200000000    5.9005196280    60.20359648030001    R2
Au    7.3000000000    5.9005196280    60.20359648030001    R2
Au    4.3800000000    5.9005196280    60.20359648030001    R2
Au    8.7600000000    3.3717254600    60.20359648030001    R2
Au    5.8400000000    3.3717254600    60.20359648030001    R2
Au    2.9200000000    3.3717254600    60.20359648030001    R2
Au    7.3000000000    0.8429312920    60.20359648030001    R2
Au    4.3800000000    0.8429312920    60.20359648030001    R2
Au    1.4600000000    0.8429312920    60.20359648030001    R2
Au    8.7600000000    5.0575883360    62.5877665523    R2
Au    5.8400000000    5.0575883360    62.5877665523    R2
Au    2.9200000000    5.0575883360    62.5877665523    R2
Au    7.3000000000    2.5287941680    62.5877665523    R2
Au    4.3800000000    2.5287941680    62.5877665523    R2
Au    1.4600000000    2.5287941680    62.5877665523    R2
Au    5.8400000000    0.0000000000    62.5877665523    R2
Au    2.9200000000    0.0000000000    62.5877665523    R2
Au    0.0000000000    0.0000000000    62.5877665523    R2
Au    8.7600000000    6.7434512120    64.9719363323    R3
Au    5.8400000000    6.7434512120    64.9719363323    R3
Au    2.9200000000    6.7434512120    64.9719363323    R3
Au    7.3000000000    4.2146570440    64.9719363323    R3
Au    4.3800000000    4.2146570440    64.9719363323    R3
Au    1.4600000000    4.2146570440    64.9719363323    R3
Au    5.8400000000    1.6858628760    64.9719363323    R3
Au    2.9200000000    1.6858628760    64.9719363323    R3
Au    0.0000000000    1.6858628760    64.9719363323    R3
Au    10.2200000000    5.9005196280    67.35610640430001    R3
Au    7.3000000000    5.9005196280    67.35610640430001    R3
Au    4.3800000000    5.9005196280    67.35610640430001    R3
Au    8.7600000000    3.3717254600    67.35610640430001    R3
Au    5.8400000000    3.3717254600    67.35610640430001    R3
Au    2.9200000000    3.3717254600    67.35610640430001    R3
Au    7.3000000000    0.8429312920    67.35610640430001    R3
Au    4.3800000000    0.8429312920    67.35610640430001    R3
Au    1.4600000000    0.8429312920    67.35610640430001    R3
Au    8.7600000000    5.0575883360    69.74027647630001    R3
Au    5.8400000000    5.0575883360    69.74027647630001    R3
Au    2.9200000000    5.0575883360    69.74027647630001    R3
Au    7.3000000000    2.5287941680    69.74027647630001    R3
Au    4.3800000000    2.5287941680    69.74027647630001    R3
Au    1.4600000000    2.5287941680    69.74027647630001    R3
Au    5.8400000000    0.0000000000    69.74027647630001    R3
Au    2.9200000000    0.0000000000    69.74027647630001    R3
Au    0.0000000000    0.0000000000    69.74027647630001    R3
