30
	Energy:      37.0530274
C         -1.79968       11.99993        0.17911
C         -2.59250       10.89075       -0.12886
C         -2.00814        9.63029       -0.28727
C         -0.61481        9.46567       -0.13861
C         -0.41857       11.84771        0.32997
C          0.16968       10.58931        0.17295
C          0.07847        8.12840       -0.29373
N         -0.85271        7.04591       -0.63924
H          0.85574        8.21708       -1.08637
H          0.58012        7.89791        0.67237
C         -0.16492        5.74967       -0.66872
H         -1.22204        7.23607       -1.60165
C         -1.10000        4.57134       -0.88773
H          0.35778        5.58220        0.29939
H          0.59431        5.75843       -1.48368
C         -2.50804        4.68555       -1.01039
C         -3.29235        3.54423       -1.20930
C         -2.70020        2.28258       -1.28766
C         -0.52095        3.28829       -0.96581
C         -1.31595        2.15626       -1.16493
F          0.82293        3.13184       -0.84986
F         -3.14497        5.88028       -0.93394
H         -3.66316       11.00243       -0.24527
H         -2.65370        8.79510       -0.52195
H         -4.36680        3.64339       -1.30115
H         -0.85267        1.17935       -1.22335
S         -2.55186       13.61121        0.38144
H          0.20122       12.70255        0.56928
H          1.24159       10.48980        0.29404
S         -3.71446        0.82995       -1.54181
