30
	Energy:      37.0530274
C   -1.5697934745373265   2.879322052331978   -11.68394203450423
C   -1.7000135294535523   3.568404751638324   -10.474852659596692
C   -1.6784862898237396   2.8722656541142375   -9.262311244158742
C   -1.5258770029820994   1.469751822984587   -9.247034203878767
C   -1.4166745602452264   1.4901012615551181   -11.680108934019659
C   -1.3941289319185755   0.7902747675619595   -10.470150886875627
C   -1.4912218606320629   0.6581825367058773   -7.9690886884604595
N   -1.660649089589193   1.487474146627265   -6.768327349808229
H   -2.2986323136015887   -0.10785844827821178   -8.00859229158918
H   -0.5085065733222107   0.13771559241491071   -7.930199145033744
C   -1.507723323338408   0.685089085728891   -5.548920028129486
H   -2.635539173130927   1.8725117360089105   -6.779897240696295
C   -1.5378499356327373   1.5095827728644355   -4.272164717780122
H   -0.5326040405766349   0.1493675005651972   -5.574282018900402
H   -2.3251696094012146   -0.07022580839604098   -5.504787135462381
C   -1.6571087666801938   2.922179617674319   -4.2403287860306795
C   -1.674843798237063   3.599875829483767   -3.0165101639486323
C   -1.5740794744268234   2.89587096150847   -1.8153580788594255
C   -1.4334743788586912   0.816685475984071   -3.048803867285064
C   -1.452644701208322   1.505869292173853   -1.8331460776324415
F   -1.3137558356411518   -0.5358415696248799   -3.032295666105264
F   -1.7492840059815615   3.6647182705199075   -5.371277182108058
H   -1.8172473332574286   4.644779542585921   -10.471676064219333
H   -1.7786412138240255   3.4395138280403055   -8.3471264254057
H   -1.7658900851941366   4.6788908847628745   -3.0043030057063023
H   -1.3724556516828375   0.9559984087031774   -0.9038419666185179
S   -1.597410724442798   3.77437100170059   -13.23347747631955
H   -1.3144949700460127   0.9502971754046862   -12.613024378056265
H   -1.2740797767067678   -0.28624243644251623   -10.486119171546083
S   -1.597410724442798   3.7743710017005894   -0.2561458357202382
