    439
 i =       82, E =     -3365.3998523447
 Au    0.000000    0.000000    0.000000    L3
Au    8.760000    0.000000    0.000000    L3
Au    4.380000    7.586382    0.000000    L3
Au    13.140000    7.586382    0.000000    L3
Au    2.920000    0.000000    0.000000    L3
Au    7.300000    7.586382    0.000000    L3
Au    5.840000    0.000000    0.000000    L3
Au    10.220000    7.586382    0.000000    L3
Au    1.460000    2.528794    0.000000    L3
Au    10.220000    2.528794    0.000000    L3
Au    4.380000    2.528794    0.000000    L3
Au    7.300000    2.528794    0.000000    L3
Au    2.920000    5.057588    0.000000    L3
Au    11.680000    5.057588    0.000000    L3
Au    5.840000    5.057588    0.000000    L3
Au    8.760000    5.057588    0.000000    L3
Au    1.460000    0.842931    2.384170    L3
Au    10.220000    0.842931    2.384170    L3
Au    5.840000    8.429314    2.384170    L3
Au    14.600000    8.429314    2.384170    L3
Au    4.380000    0.842931    2.384170    L3
Au    8.760000    8.429314    2.384170    L3
Au    7.300000    0.842931    2.384170    L3
Au    11.680000    8.429314    2.384170    L3
Au    2.920000    3.371726    2.384170    L3
Au    11.680000    3.371726    2.384170    L3
Au    5.840000    3.371726    2.384170    L3
Au    8.760000    3.371726    2.384170    L3
Au    4.380000    5.900520    2.384170    L3
Au    13.140000    5.900520    2.384170    L3
Au    7.300000    5.900520    2.384170    L3
Au    10.220000    5.900520    2.384170    L3
Au    8.760000    1.685863    4.768340    L3
Au    13.140000    9.272245    4.768340    L3
Au    2.920000    1.685863    4.768340    L3
Au    11.680000    1.685863    4.768340    L3
Au    7.300000    9.272245    4.768340    L3
Au    16.059999    9.272245    4.768340    L3
Au    5.840000    1.685863    4.768340    L3
Au    10.220000    9.272245    4.768340    L3
Au    10.220000    4.214657    4.768340    L3
Au    4.380000    4.214657    4.768340    L3
Au    13.140000    4.214657    4.768340    L3
Au    7.300000    4.214657    4.768340    L3
Au    11.680000    6.743451    4.768340    L3
Au    5.840000    6.743451    4.768340    L3
Au    14.600000    6.743451    4.768340    L3
Au    8.760000    6.743451    4.768340    L3
Au    0.000000    0.000000    7.152510    L2
Au    8.760000    0.000000    7.152510    L2
Au    4.380000    7.586382    7.152510    L2
Au    13.140000    7.586382    7.152510    L2
Au    2.920000    0.000000    7.152510    L2
Au    7.300000    7.586382    7.152510    L2
Au    5.840000    0.000000    7.152510    L2
Au    10.220000    7.586382    7.152510    L2
Au    1.460000    2.528794    7.152510    L2
Au    10.220000    2.528794    7.152510    L2
Au    4.380000    2.528794    7.152510    L2
Au    7.300000    2.528794    7.152510    L2
Au    2.920000    5.057588    7.152510    L2
Au    11.680000    5.057588    7.152510    L2
Au    5.840000    5.057588    7.152510    L2
Au    8.760000    5.057588    7.152510    L2
Au    1.460000    0.842931    9.536680    L2
Au    10.220000    0.842931    9.536680    L2
Au    5.840000    8.429314    9.536680    L2
Au    14.600000    8.429314    9.536680    L2
Au    4.380000    0.842931    9.536680    L2
Au    8.760000    8.429314    9.536680    L2
Au    7.300000    0.842931    9.536680    L2
Au    11.680000    8.429314    9.536680    L2
Au    2.920000    3.371726    9.536680    L2
Au    11.680000    3.371726    9.536680    L2
Au    5.840000    3.371726    9.536680    L2
Au    8.760000    3.371726    9.536680    L2
Au    4.380000    5.900520    9.536680    L2
Au    13.140000    5.900520    9.536680    L2
Au    7.300000    5.900520    9.536680    L2
Au    10.220000    5.900520    9.536680    L2
Au    8.760000    1.685863    11.920850    L2
Au    13.140000    9.272245    11.920850    L2
Au    2.920000    1.685863    11.920850    L2
Au    11.680000    1.685863    11.920850    L2
Au    7.300000    9.272245    11.920850    L2
Au    16.059999    9.272245    11.920850    L2
Au    5.840000    1.685863    11.920850    L2
Au    10.220000    9.272245    11.920850    L2
Au    10.220000    4.214657    11.920850    L2
Au    4.380000    4.214657    11.920850    L2
Au    13.140000    4.214657    11.920850    L2
Au    7.300000    4.214657    11.920850    L2
Au    11.680000    6.743451    11.920850    L2
Au    5.840000    6.743451    11.920850    L2
Au    14.600000    6.743451    11.920850    L2
Au    8.760000    6.743451    11.920850    L2
Au    0.000000    0.000000    14.305019    L1
Au    8.760000    0.000000    14.305019    L1
Au    4.380000    7.586382    14.305019    L1
Au    13.140000    7.586382    14.305019    L1
Au    2.920000    0.000000    14.305019    L1
Au    7.300000    7.586382    14.305019    L1
Au    5.840000    0.000000    14.305019    L1
Au    10.220000    7.586382    14.305019    L1
Au    1.460000    2.528794    14.305019    L1
Au    10.220000    2.528794    14.305019    L1
Au    4.380000    2.528794    14.305019    L1
Au    7.300000    2.528794    14.305019    L1
Au    2.920000    5.057588    14.305019    L1
Au    11.680000    5.057588    14.305019    L1
Au    5.840000    5.057588    14.305019    L1
Au    8.760000    5.057588    14.305019    L1
Au    1.460000    0.842931    16.689190    L1
Au    10.220000    0.842931    16.689190    L1
Au    5.840000    8.429314    16.689190    L1
Au    14.600000    8.429314    16.689190    L1
Au    4.380000    0.842931    16.689190    L1
Au    8.760000    8.429314    16.689190    L1
Au    7.300000    0.842931    16.689190    L1
Au    11.680000    8.429314    16.689190    L1
Au    2.920000    3.371726    16.689190    L1
Au    11.680000    3.371726    16.689190    L1
Au    5.840000    3.371726    16.689190    L1
Au    8.760000    3.371726    16.689190    L1
Au    4.380000    5.900520    16.689190    L1
Au    13.140000    5.900520    16.689190    L1
Au    7.300000    5.900520    16.689190    L1
Au    10.220000    5.900520    16.689190    L1
Au    8.760000    1.685863    19.073360    L1
Au    13.140000    9.272245    19.073360    L1
Au    2.920000    1.685863    19.073360    L1
Au    11.680000    1.685863    19.073360    L1
Au    7.300000    9.272245    19.073360    L1
Au    16.059999    9.272245    19.073360    L1
Au    5.840000    1.685863    19.073360    L1
Au    10.220000    9.272245    19.073360    L1
Au    10.220000    4.214657    19.073360    L1
Au    4.380000    4.214657    19.073360    L1
Au    13.140000    4.214657    19.073360    L1
Au    7.300000    4.214657    19.073360    L1
Au    11.680000    6.743451    19.073360    L1
Au    5.840000    6.743451    19.073360    L1
Au    14.600000    6.743451    19.073360    L1
Au    8.760000    6.743451    19.073360    L1
Au    0.0000000000    0.0000000000    21.457530064    L0
Au    8.7600000000    0.0000000000    21.457530064    L0
Au    4.3800000000    7.5863820000    21.457530064    L0
Au    13.1400000000    7.5863820000    21.457530064    L0
Au    2.9200000000    0.0000000000    21.457530064    L0
Au    7.3000000000    7.5863820000    21.457530064    L0
Au    5.8400000000    0.0000000000    21.457530064    L0
Au    10.2200000000    7.5863820000    21.457530064    L0
Au    1.4600000000    2.5287940000    21.457530064    L0
Au    10.2200000000    2.5287940000    21.457530064    L0
Au    4.3800000000    2.5287940000    21.457530064    L0
Au    7.3000000000    2.5287940000    21.457530064    L0
Au    2.9200000000    5.0575880000    21.457530064    L0
Au    11.6800000000    5.0575880000    21.457530064    L0
Au    5.8400000000    5.0575880000    21.457530064    L0
Au    8.7600000000    5.0575880000    21.457530064    L0
Au    1.4600000000    0.8429310000    23.841700064    L0
Au    10.2200000000    0.8429310000    23.841700064    L0
Au    5.8400000000    8.4293140000    23.841700064    L0
Au    14.6000000000    8.4293140000    23.841700064    L0
Au    4.3800000000    0.8429310000    23.841700064    L0
Au    8.7600000000    8.4293140000    23.841700064    L0
Au    7.3000000000    0.8429310000    23.841700064    L0
Au    11.6800000000    8.4293140000    23.841700064    L0
Au    2.9200000000    3.3717260000    23.841700064    L0
Au    11.6800000000    3.3717260000    23.841700064    L0
Au    5.8400000000    3.3717260000    23.841700064    L0
Au    8.7600000000    3.3717260000    23.841700064    L0
Au    4.3800000000    5.9005200000    23.841700064    L0
Au    13.1400000000    5.9005200000    23.841700064    L0
Au    7.3000000000    5.9005200000    23.841700064    L0
Au    10.2200000000    5.9005200000    23.841700064    L0
Au    8.7600000000    1.6858630000    26.225870064    L0
Au    13.1400000000    9.2722450000    26.225870064    L0
Au    2.9200000000    1.6858630000    26.225870064    L0
Au    11.6800000000    1.6858630000    26.225870064    L0
Au    7.3000000000    9.2722450000    26.225870064    L0
Au    16.0599990000    9.2722450000    26.225870064    L0
Au    5.8400000000    1.6858630000    26.225870064    L0
Au    10.2200000000    9.2722450000    26.225870064    L0
Au    10.2200000000    4.2146570000    26.225870064    L0
Au    4.3800000000    4.2146570000    26.225870064    L0
Au    13.1400000000    4.2146570000    26.225870064    L0
Au    7.3000000000    4.2146570000    26.225870064    L0
Au    11.6800000000    6.7434510000    26.225870064    L0
Au    5.8400000000    6.7434510000    26.225870064    L0
Au    14.6000000000    6.7434510000    26.225870064    L0
Au    8.7600000000    6.7434510000    26.225870064    L0
C    8.6142791073    7.1246310526    40.924399196799996    S
C    8.6321229911    5.7255302569    40.820311924500004    S
C    8.5195713827    5.1190356536    39.5707313008    S
C    8.3799558382    5.8824247129    38.3935970326    S
C    8.4908061590    7.9009297882    39.755440723999996    S
C    8.3738569013    7.2848562723    38.517112529399995    S
C    8.2295190456    5.2614206867    37.0600777526    S
C    8.9319998574    4.1018658669    36.6887845797    S
C    8.7912440940    3.5478363838    35.4138723671    S
C    7.9391867152    4.1327308742    34.470599527000005    S
C    7.3677061599    5.8386135347    36.1062647989    S
C    7.2242330682    5.2822230427    34.8406383783    S
C    7.7163982410    3.5614181616    33.0734511015    S
C    8.2944777081    4.3990405246    31.9303416495    S
C    7.8581279274    4.1341748387    30.623108749700002    S
C    8.3027928113    4.8957197282    29.5502308182    S
C    9.2135329366    5.9467681472    29.7436458807    S
C    9.2018244751    5.4479322007    32.1262979993    S
C    9.6662270082    6.2088801069    31.052942111900002    S
N    8.0504877232    2.1377034419    32.953721098900004    S
H    6.6253257724    3.5934928740    32.9118147194    S
C    7.1242212557    1.1245904053    33.2209712771    S
C    7.7426567949    -0.1390341428    33.012833966    S
C    9.1063800989    0.1260886162    32.6187120265    S
C    9.2705317290    1.5420433615    32.6019659768    S
H    8.7217582754    5.1129922915    41.7200858932    S
H    8.5067805880    4.0298358040    39.5109815593    S
S    8.7445588023    8.0699068326    42.419187120800004    S
H    8.4946975055    8.9885616785    39.8273667647    S
H    8.3012180942    7.9046995937    37.622963025800004    S
H    6.7768244035    6.7148289372    36.375158940700004    S
H    9.6199038809    3.6391074186    37.3979584446    S
H    9.3501094237    2.6481097359    35.1552325114    S
H    6.5367489566    5.7441171768    34.1283838871    S
H    9.5509200897    5.6807934598    33.1328351297    S
H    7.1536361987    3.3200244480    30.4409349982    S
H    7.9247444841    4.6836330146    28.5470399579    S
S    9.8005902007    7.0381355266    28.4777933762    S
H    10.3700988621    7.0229429127    31.2300092664    S
C    5.7919899517    1.2247693974    33.6363436264    S
C    5.0771362164    0.0412274706    33.8271472703    S
C    5.6736691342    -1.2150187096    33.619653428999996    S
C    7.0040259331    -1.3122682534    33.2144388918    S
H    5.3177465172    2.1872516602    33.8276465702    S
H    4.0378091932    0.0958463623    34.1527667816    S
H    5.0896158916    -2.1196370345    33.791796191399996    S
H    7.4662936063    -2.2887142240    33.0613446334    S
C    10.5043976186    2.1190507770    32.2765484915    S
C    11.5605224617    1.2664287814    31.9513377918    S
C    10.1839960500    -0.7054107563    32.2864473513    S
H    10.6458221158    3.1966910505    32.2616587197    S
C    11.4075254467    -0.1310999890    31.9498660267    S
H    12.5250695219    1.6998761503    31.684705562799998    S
H    10.0618813356    -1.7897272863    32.2859169129    S
H    12.2517665891    -0.7652428148    31.6775691854    S
Au    0.0000000000    0.0000000000    44.5253323271    R0
Au    8.7600000000    0.0000000000    44.5253323271    R0
Au    4.3800000000    7.5863820000    44.5253323271    R0
Au    13.1400000000    7.5863820000    44.5253323271    R0
Au    2.9200000000    0.0000000000    44.5253323271    R0
Au    7.3000000000    7.5863820000    44.5253323271    R0
Au    5.8400000000    0.0000000000    44.5253323271    R0
Au    10.2200000000    7.5863820000    44.5253323271    R0
Au    1.4600000000    2.5287940000    44.5253323271    R0
Au    10.2200000000    2.5287940000    44.5253323271    R0
Au    4.3800000000    2.5287940000    44.5253323271    R0
Au    7.3000000000    2.5287940000    44.5253323271    R0
Au    2.9200000000    5.0575880000    44.5253323271    R0
Au    11.6800000000    5.0575880000    44.5253323271    R0
Au    5.8400000000    5.0575880000    44.5253323271    R0
Au    8.7600000000    5.0575880000    44.5253323271    R0
Au    1.4600000000    0.8429310000    46.9095023271    R0
Au    10.2200000000    0.8429310000    46.9095023271    R0
Au    5.8400000000    8.4293140000    46.9095023271    R0
Au    14.6000000000    8.4293140000    46.9095023271    R0
Au    4.3800000000    0.8429310000    46.9095023271    R0
Au    8.7600000000    8.4293140000    46.9095023271    R0
Au    7.3000000000    0.8429310000    46.9095023271    R0
Au    11.6800000000    8.4293140000    46.9095023271    R0
Au    2.9200000000    3.3717260000    46.9095023271    R0
Au    11.6800000000    3.3717260000    46.9095023271    R0
Au    5.8400000000    3.3717260000    46.9095023271    R0
Au    8.7600000000    3.3717260000    46.9095023271    R0
Au    4.3800000000    5.9005200000    46.9095023271    R0
Au    13.1400000000    5.9005200000    46.9095023271    R0
Au    7.3000000000    5.9005200000    46.9095023271    R0
Au    10.2200000000    5.9005200000    46.9095023271    R0
Au    8.7600000000    1.6858630000    49.2936723271    R0
Au    13.1400000000    9.2722450000    49.2936723271    R0
Au    2.9200000000    1.6858630000    49.2936723271    R0
Au    11.6800000000    1.6858630000    49.2936723271    R0
Au    7.3000000000    9.2722450000    49.2936723271    R0
Au    16.0599990000    9.2722450000    49.2936723271    R0
Au    5.8400000000    1.6858630000    49.2936723271    R0
Au    10.2200000000    9.2722450000    49.2936723271    R0
Au    10.2200000000    4.2146570000    49.2936723271    R0
Au    4.3800000000    4.2146570000    49.2936723271    R0
Au    13.1400000000    4.2146570000    49.2936723271    R0
Au    7.3000000000    4.2146570000    49.2936723271    R0
Au    11.6800000000    6.7434510000    49.2936723271    R0
Au    5.8400000000    6.7434510000    49.2936723271    R0
Au    14.6000000000    6.7434510000    49.2936723271    R0
Au    8.7600000000    6.7434510000    49.2936723271    R0
Au    0.000000    0.000000    51.6778423991    R1
Au    8.760000    0.000000    51.6778423991    R1
Au    4.380000    7.586382    51.6778423991    R1
Au    13.140000    7.586382    51.6778423991    R1
Au    2.920000    0.000000    51.6778423991    R1
Au    7.300000    7.586382    51.6778423991    R1
Au    5.840000    0.000000    51.6778423991    R1
Au    10.220000    7.586382    51.6778423991    R1
Au    1.460000    2.528794    51.6778423991    R1
Au    10.220000    2.528794    51.6778423991    R1
Au    4.380000    2.528794    51.6778423991    R1
Au    7.300000    2.528794    51.6778423991    R1
Au    2.920000    5.057588    51.6778423991    R1
Au    11.680000    5.057588    51.6778423991    R1
Au    5.840000    5.057588    51.6778423991    R1
Au    8.760000    5.057588    51.6778423991    R1
Au    1.460000    0.842931    54.0620123991    R1
Au    10.220000    0.842931    54.0620123991    R1
Au    5.840000    8.429314    54.0620123991    R1
Au    14.600000    8.429314    54.0620123991    R1
Au    4.380000    0.842931    54.0620123991    R1
Au    8.760000    8.429314    54.0620123991    R1
Au    7.300000    0.842931    54.0620123991    R1
Au    11.680000    8.429314    54.0620123991    R1
Au    2.920000    3.371726    54.0620123991    R1
Au    11.680000    3.371726    54.0620123991    R1
Au    5.840000    3.371726    54.0620123991    R1
Au    8.760000    3.371726    54.0620123991    R1
Au    4.380000    5.900520    54.0620123991    R1
Au    13.140000    5.900520    54.0620123991    R1
Au    7.300000    5.900520    54.0620123991    R1
Au    10.220000    5.900520    54.0620123991    R1
Au    8.760000    1.685863    56.4461823991    R1
Au    13.140000    9.272245    56.4461823991    R1
Au    2.920000    1.685863    56.4461823991    R1
Au    11.680000    1.685863    56.4461823991    R1
Au    7.300000    9.272245    56.4461823991    R1
Au    16.059999    9.272245    56.4461823991    R1
Au    5.840000    1.685863    56.4461823991    R1
Au    10.220000    9.272245    56.4461823991    R1
Au    10.220000    4.214657    56.4461823991    R1
Au    4.380000    4.214657    56.4461823991    R1
Au    13.140000    4.214657    56.4461823991    R1
Au    7.300000    4.214657    56.4461823991    R1
Au    11.680000    6.743451    56.4461823991    R1
Au    5.840000    6.743451    56.4461823991    R1
Au    14.600000    6.743451    56.4461823991    R1
Au    8.760000    6.743451    56.4461823991    R1
Au    0.000000    0.000000    58.8303513991    R2
Au    8.760000    0.000000    58.8303513991    R2
Au    4.380000    7.586382    58.8303513991    R2
Au    13.140000    7.586382    58.8303513991    R2
Au    2.920000    0.000000    58.8303513991    R2
Au    7.300000    7.586382    58.8303513991    R2
Au    5.840000    0.000000    58.8303513991    R2
Au    10.220000    7.586382    58.8303513991    R2
Au    1.460000    2.528794    58.8303513991    R2
Au    10.220000    2.528794    58.8303513991    R2
Au    4.380000    2.528794    58.8303513991    R2
Au    7.300000    2.528794    58.8303513991    R2
Au    2.920000    5.057588    58.8303513991    R2
Au    11.680000    5.057588    58.8303513991    R2
Au    5.840000    5.057588    58.8303513991    R2
Au    8.760000    5.057588    58.8303513991    R2
Au    1.460000    0.842931    61.214522399100005    R2
Au    10.220000    0.842931    61.214522399100005    R2
Au    5.840000    8.429314    61.214522399100005    R2
Au    14.600000    8.429314    61.214522399100005    R2
Au    4.380000    0.842931    61.214522399100005    R2
Au    8.760000    8.429314    61.214522399100005    R2
Au    7.300000    0.842931    61.214522399100005    R2
Au    11.680000    8.429314    61.214522399100005    R2
Au    2.920000    3.371726    61.214522399100005    R2
Au    11.680000    3.371726    61.214522399100005    R2
Au    5.840000    3.371726    61.214522399100005    R2
Au    8.760000    3.371726    61.214522399100005    R2
Au    4.380000    5.900520    61.214522399100005    R2
Au    13.140000    5.900520    61.214522399100005    R2
Au    7.300000    5.900520    61.214522399100005    R2
Au    10.220000    5.900520    61.214522399100005    R2
Au    8.760000    1.685863    63.5986923991    R2
Au    13.140000    9.272245    63.5986923991    R2
Au    2.920000    1.685863    63.5986923991    R2
Au    11.680000    1.685863    63.5986923991    R2
Au    7.300000    9.272245    63.5986923991    R2
Au    16.059999    9.272245    63.5986923991    R2
Au    5.840000    1.685863    63.5986923991    R2
Au    10.220000    9.272245    63.5986923991    R2
Au    10.220000    4.214657    63.5986923991    R2
Au    4.380000    4.214657    63.5986923991    R2
Au    13.140000    4.214657    63.5986923991    R2
Au    7.300000    4.214657    63.5986923991    R2
Au    11.680000    6.743451    63.5986923991    R2
Au    5.840000    6.743451    63.5986923991    R2
Au    14.600000    6.743451    63.5986923991    R2
Au    8.760000    6.743451    63.5986923991    R2
Au    0.000000    0.000000    65.9828613991    R3
Au    8.760000    0.000000    65.9828613991    R3
Au    4.380000    7.586382    65.9828613991    R3
Au    13.140000    7.586382    65.9828613991    R3
Au    2.920000    0.000000    65.9828613991    R3
Au    7.300000    7.586382    65.9828613991    R3
Au    5.840000    0.000000    65.9828613991    R3
Au    10.220000    7.586382    65.9828613991    R3
Au    1.460000    2.528794    65.9828613991    R3
Au    10.220000    2.528794    65.9828613991    R3
Au    4.380000    2.528794    65.9828613991    R3
Au    7.300000    2.528794    65.9828613991    R3
Au    2.920000    5.057588    65.9828613991    R3
Au    11.680000    5.057588    65.9828613991    R3
Au    5.840000    5.057588    65.9828613991    R3
Au    8.760000    5.057588    65.9828613991    R3
Au    1.460000    0.842931    68.3670323991    R3
Au    10.220000    0.842931    68.3670323991    R3
Au    5.840000    8.429314    68.3670323991    R3
Au    14.600000    8.429314    68.3670323991    R3
Au    4.380000    0.842931    68.3670323991    R3
Au    8.760000    8.429314    68.3670323991    R3
Au    7.300000    0.842931    68.3670323991    R3
Au    11.680000    8.429314    68.3670323991    R3
Au    2.920000    3.371726    68.3670323991    R3
Au    11.680000    3.371726    68.3670323991    R3
Au    5.840000    3.371726    68.3670323991    R3
Au    8.760000    3.371726    68.3670323991    R3
Au    4.380000    5.900520    68.3670323991    R3
Au    13.140000    5.900520    68.3670323991    R3
Au    7.300000    5.900520    68.3670323991    R3
Au    10.220000    5.900520    68.3670323991    R3
Au    8.760000    1.685863    70.75120239910001    R3
Au    13.140000    9.272245    70.75120239910001    R3
Au    2.920000    1.685863    70.75120239910001    R3
Au    11.680000    1.685863    70.75120239910001    R3
Au    7.300000    9.272245    70.75120239910001    R3
Au    16.059999    9.272245    70.75120239910001    R3
Au    5.840000    1.685863    70.75120239910001    R3
Au    10.220000    9.272245    70.75120239910001    R3
Au    10.220000    4.214657    70.75120239910001    R3
Au    4.380000    4.214657    70.75120239910001    R3
Au    13.140000    4.214657    70.75120239910001    R3
Au    7.300000    4.214657    70.75120239910001    R3
Au    11.680000    6.743451    70.75120239910001    R3
Au    5.840000    6.743451    70.75120239910001    R3
Au    14.600000    6.743451    70.75120239910001    R3
Au    8.760000    6.743451    70.75120239910001    R3
