151
	Energy: 26428686.3139777
Au         0.00000        0.00000        0.00000
Au         8.76000        0.00000        0.00000
Au         4.38000        7.58638        0.00000
Au        13.14000        7.58638        0.00000
Au         2.92000        0.00000        0.00000
Au         7.30000        7.58638        0.00000
Au         5.84000        0.00000        0.00000
Au        10.22000        7.58638        0.00000
Au         1.46000        2.52879        0.00000
Au        10.22000        2.52879        0.00000
Au         4.38000        2.52879        0.00000
Au         7.30000        2.52879        0.00000
Au         2.92000        5.05759        0.00000
Au        11.68000        5.05759        0.00000
Au         5.84000        5.05759        0.00000
Au         8.76000        5.05759        0.00000
Au         1.46000        0.84293        2.38417
Au        10.22000        0.84293        2.38417
Au         5.84000        8.42931        2.38417
Au        14.60000        8.42931        2.38417
Au         4.38000        0.84293        2.38417
Au         8.76000        8.42931        2.38417
Au         7.30000        0.84293        2.38417
Au        11.68000        8.42931        2.38417
Au         2.92000        3.37173        2.38417
Au        11.68000        3.37173        2.38417
Au         5.84000        3.37173        2.38417
Au         8.76000        3.37173        2.38417
Au         4.38000        5.90052        2.38417
Au        13.14000        5.90052        2.38417
Au         7.30000        5.90052        2.38417
Au        10.22000        5.90052        2.38417
Au         8.76000        1.68586        4.76834
Au        13.14000        9.27224        4.76834
Au         2.92000        1.68586        4.76834
Au        11.68000        1.68586        4.76834
Au         7.30000        9.27224        4.76834
Au        16.06000        9.27224        4.76834
Au         5.84000        1.68586        4.76834
Au        10.22000        9.27224        4.76834
Au        10.22000        4.21466        4.76834
Au         4.38000        4.21466        4.76834
Au        13.14000        4.21466        4.76834
Au         7.30000        4.21466        4.76834
Au        11.68000        6.74345        4.76834
Au         5.84000        6.74345        4.76834
Au        14.60000        6.74345        4.76834
Au         8.76000        6.74345        4.76834
C          8.46713        7.14232       19.44015
C          8.58505        5.75101       19.29377
C          8.43362        5.16708       18.03751
C          8.15836        5.94151       16.89040
C          8.18871        7.92919       18.30486
C          8.04051        7.33504       17.05853
C          7.98889        5.33608       15.55038
C          8.71668        4.20163       15.14787
C          8.54895        3.64519       13.87788
C          7.64753        4.20467       12.96428
C          7.08495        5.89156       14.62189
C          6.91900        5.33742       13.35692
C          7.40199        3.62133       11.57411
C          8.01012        4.43507       10.43625
C          7.30456        4.55924        9.22987
C          7.81790        5.29381        8.16509
C          9.07368        5.91520        8.27082
C          9.25927        5.06366       10.54437
C          9.79508        5.78112        9.47596
N          7.79323        2.20153       11.48516
H          6.31102        3.63347       11.41377
C          7.10141        1.15578       12.07658
C          7.83472        0.02463       11.80761
C          8.96033        0.33647       11.07063
C          8.90781        1.64866       10.89666
H          8.78922        5.12728       20.16624
H          8.50594        4.08218       17.95041
S          8.70135        8.05953       20.94117
H          8.10416        9.01102       18.40780
H          7.85712        7.97025       16.19156
H          6.47713        6.75050       14.90753
H          9.44176        3.75612       15.83030
H          9.11960        2.75768       13.60166
H          6.20138        5.78602       12.66656
H          9.82051        4.99891       11.47772
H          6.32838        4.08201        9.12193
H          7.23320        5.40681        7.25102
S          9.75787        6.98973        7.04162
H         10.76949        6.25967        9.57683
C          6.46013        1.06073       13.50323
C          5.38842       -0.30674       13.88894
C          5.19354       -1.29028       12.74388
C          6.49266       -1.25693       12.23607
H          6.65737        1.78414       14.21231
H          4.93773       -0.42284       14.81004
H          4.57669       -2.09476       12.93710
H          6.08078       -1.63100       11.23035
C          9.76205        2.30944        9.87953
C          9.44615        1.34977        9.07285
C          8.82879       -0.41619       10.15091
H         10.34792        3.15787        9.83548
C          9.56086        0.11737        9.22511
H          9.03996        1.64682        8.17185
H          8.26790       -1.28128       10.10569
H         10.20307       -0.44582        8.64596
Au         0.00000        0.00000       23.06780
Au         8.76000        0.00000       23.06780
Au         4.38000        7.58638       23.06780
Au        13.14000        7.58638       23.06780
Au         2.92000        0.00000       23.06780
Au         7.30000        7.58638       23.06780
Au         5.84000        0.00000       23.06780
Au        10.22000        7.58638       23.06780
Au         1.46000        2.52879       23.06780
Au        10.22000        2.52879       23.06780
Au         4.38000        2.52879       23.06780
Au         7.30000        2.52879       23.06780
Au         2.92000        5.05759       23.06780
Au        11.68000        5.05759       23.06780
Au         5.84000        5.05759       23.06780
Au         8.76000        5.05759       23.06780
Au         1.46000        0.84293       25.45197
Au        10.22000        0.84293       25.45197
Au         5.84000        8.42931       25.45197
Au        14.60000        8.42931       25.45197
Au         4.38000        0.84293       25.45197
Au         8.76000        8.42931       25.45197
Au         7.30000        0.84293       25.45197
Au        11.68000        8.42931       25.45197
Au         2.92000        3.37173       25.45197
Au        11.68000        3.37173       25.45197
Au         5.84000        3.37173       25.45197
Au         8.76000        3.37173       25.45197
Au         4.38000        5.90052       25.45197
Au        13.14000        5.90052       25.45197
Au         7.30000        5.90052       25.45197
Au        10.22000        5.90052       25.45197
Au         8.76000        1.68586       27.83614
Au        13.14000        9.27224       27.83614
Au         2.92000        1.68586       27.83614
Au        11.68000        1.68586       27.83614
Au         7.30000        9.27224       27.83614
Au        16.06000        9.27224       27.83614
Au         5.84000        1.68586       27.83614
Au        10.22000        9.27224       27.83614
Au        10.22000        4.21466       27.83614
Au         4.38000        4.21466       27.83614
Au        13.14000        4.21466       27.83614
Au         7.30000        4.21466       27.83614
Au        11.68000        6.74345       27.83614
Au         5.84000        6.74345       27.83614
Au        14.60000        6.74345       27.83614
Au         8.76000        6.74345       27.83614
