    421
 i =       82, E =     -3365.3998523447
 Au    0.000000    0.000000    0.000000    L3
Au    8.760000    0.000000    0.000000    L3
Au    4.380000    7.586382    0.000000    L3
Au    13.140000    7.586382    0.000000    L3
Au    2.920000    0.000000    0.000000    L3
Au    7.300000    7.586382    0.000000    L3
Au    5.840000    0.000000    0.000000    L3
Au    10.220000    7.586382    0.000000    L3
Au    1.460000    2.528794    0.000000    L3
Au    10.220000    2.528794    0.000000    L3
Au    4.380000    2.528794    0.000000    L3
Au    7.300000    2.528794    0.000000    L3
Au    2.920000    5.057588    0.000000    L3
Au    11.680000    5.057588    0.000000    L3
Au    5.840000    5.057588    0.000000    L3
Au    8.760000    5.057588    0.000000    L3
Au    1.460000    0.842931    2.384170    L3
Au    10.220000    0.842931    2.384170    L3
Au    5.840000    8.429314    2.384170    L3
Au    14.600000    8.429314    2.384170    L3
Au    4.380000    0.842931    2.384170    L3
Au    8.760000    8.429314    2.384170    L3
Au    7.300000    0.842931    2.384170    L3
Au    11.680000    8.429314    2.384170    L3
Au    2.920000    3.371726    2.384170    L3
Au    11.680000    3.371726    2.384170    L3
Au    5.840000    3.371726    2.384170    L3
Au    8.760000    3.371726    2.384170    L3
Au    4.380000    5.900520    2.384170    L3
Au    13.140000    5.900520    2.384170    L3
Au    7.300000    5.900520    2.384170    L3
Au    10.220000    5.900520    2.384170    L3
Au    8.760000    1.685863    4.768340    L3
Au    13.140000    9.272245    4.768340    L3
Au    2.920000    1.685863    4.768340    L3
Au    11.680000    1.685863    4.768340    L3
Au    7.300000    9.272245    4.768340    L3
Au    16.059999    9.272245    4.768340    L3
Au    5.840000    1.685863    4.768340    L3
Au    10.220000    9.272245    4.768340    L3
Au    10.220000    4.214657    4.768340    L3
Au    4.380000    4.214657    4.768340    L3
Au    13.140000    4.214657    4.768340    L3
Au    7.300000    4.214657    4.768340    L3
Au    11.680000    6.743451    4.768340    L3
Au    5.840000    6.743451    4.768340    L3
Au    14.600000    6.743451    4.768340    L3
Au    8.760000    6.743451    4.768340    L3
Au    0.000000    0.000000    7.152510    L2
Au    8.760000    0.000000    7.152510    L2
Au    4.380000    7.586382    7.152510    L2
Au    13.140000    7.586382    7.152510    L2
Au    2.920000    0.000000    7.152510    L2
Au    7.300000    7.586382    7.152510    L2
Au    5.840000    0.000000    7.152510    L2
Au    10.220000    7.586382    7.152510    L2
Au    1.460000    2.528794    7.152510    L2
Au    10.220000    2.528794    7.152510    L2
Au    4.380000    2.528794    7.152510    L2
Au    7.300000    2.528794    7.152510    L2
Au    2.920000    5.057588    7.152510    L2
Au    11.680000    5.057588    7.152510    L2
Au    5.840000    5.057588    7.152510    L2
Au    8.760000    5.057588    7.152510    L2
Au    1.460000    0.842931    9.536680    L2
Au    10.220000    0.842931    9.536680    L2
Au    5.840000    8.429314    9.536680    L2
Au    14.600000    8.429314    9.536680    L2
Au    4.380000    0.842931    9.536680    L2
Au    8.760000    8.429314    9.536680    L2
Au    7.300000    0.842931    9.536680    L2
Au    11.680000    8.429314    9.536680    L2
Au    2.920000    3.371726    9.536680    L2
Au    11.680000    3.371726    9.536680    L2
Au    5.840000    3.371726    9.536680    L2
Au    8.760000    3.371726    9.536680    L2
Au    4.380000    5.900520    9.536680    L2
Au    13.140000    5.900520    9.536680    L2
Au    7.300000    5.900520    9.536680    L2
Au    10.220000    5.900520    9.536680    L2
Au    8.760000    1.685863    11.920850    L2
Au    13.140000    9.272245    11.920850    L2
Au    2.920000    1.685863    11.920850    L2
Au    11.680000    1.685863    11.920850    L2
Au    7.300000    9.272245    11.920850    L2
Au    16.059999    9.272245    11.920850    L2
Au    5.840000    1.685863    11.920850    L2
Au    10.220000    9.272245    11.920850    L2
Au    10.220000    4.214657    11.920850    L2
Au    4.380000    4.214657    11.920850    L2
Au    13.140000    4.214657    11.920850    L2
Au    7.300000    4.214657    11.920850    L2
Au    11.680000    6.743451    11.920850    L2
Au    5.840000    6.743451    11.920850    L2
Au    14.600000    6.743451    11.920850    L2
Au    8.760000    6.743451    11.920850    L2
Au    0.000000    0.000000    14.305019    L1
Au    8.760000    0.000000    14.305019    L1
Au    4.380000    7.586382    14.305019    L1
Au    13.140000    7.586382    14.305019    L1
Au    2.920000    0.000000    14.305019    L1
Au    7.300000    7.586382    14.305019    L1
Au    5.840000    0.000000    14.305019    L1
Au    10.220000    7.586382    14.305019    L1
Au    1.460000    2.528794    14.305019    L1
Au    10.220000    2.528794    14.305019    L1
Au    4.380000    2.528794    14.305019    L1
Au    7.300000    2.528794    14.305019    L1
Au    2.920000    5.057588    14.305019    L1
Au    11.680000    5.057588    14.305019    L1
Au    5.840000    5.057588    14.305019    L1
Au    8.760000    5.057588    14.305019    L1
Au    1.460000    0.842931    16.689190    L1
Au    10.220000    0.842931    16.689190    L1
Au    5.840000    8.429314    16.689190    L1
Au    14.600000    8.429314    16.689190    L1
Au    4.380000    0.842931    16.689190    L1
Au    8.760000    8.429314    16.689190    L1
Au    7.300000    0.842931    16.689190    L1
Au    11.680000    8.429314    16.689190    L1
Au    2.920000    3.371726    16.689190    L1
Au    11.680000    3.371726    16.689190    L1
Au    5.840000    3.371726    16.689190    L1
Au    8.760000    3.371726    16.689190    L1
Au    4.380000    5.900520    16.689190    L1
Au    13.140000    5.900520    16.689190    L1
Au    7.300000    5.900520    16.689190    L1
Au    10.220000    5.900520    16.689190    L1
Au    8.760000    1.685863    19.073360    L1
Au    13.140000    9.272245    19.073360    L1
Au    2.920000    1.685863    19.073360    L1
Au    11.680000    1.685863    19.073360    L1
Au    7.300000    9.272245    19.073360    L1
Au    16.059999    9.272245    19.073360    L1
Au    5.840000    1.685863    19.073360    L1
Au    10.220000    9.272245    19.073360    L1
Au    10.220000    4.214657    19.073360    L1
Au    4.380000    4.214657    19.073360    L1
Au    13.140000    4.214657    19.073360    L1
Au    7.300000    4.214657    19.073360    L1
Au    11.680000    6.743451    19.073360    L1
Au    5.840000    6.743451    19.073360    L1
Au    14.600000    6.743451    19.073360    L1
Au    8.760000    6.743451    19.073360    L1
Au    0.0000000000    0.0000000000    21.457530064    L0
Au    8.7600000000    0.0000000000    21.457530064    L0
Au    4.3800000000    7.5863820000    21.457530064    L0
Au    13.1400000000    7.5863820000    21.457530064    L0
Au    2.9200000000    0.0000000000    21.457530064    L0
Au    7.3000000000    7.5863820000    21.457530064    L0
Au    5.8400000000    0.0000000000    21.457530064    L0
Au    10.2200000000    7.5863820000    21.457530064    L0
Au    1.4600000000    2.5287940000    21.457530064    L0
Au    10.2200000000    2.5287940000    21.457530064    L0
Au    4.3800000000    2.5287940000    21.457530064    L0
Au    7.3000000000    2.5287940000    21.457530064    L0
Au    2.9200000000    5.0575880000    21.457530064    L0
Au    11.6800000000    5.0575880000    21.457530064    L0
Au    5.8400000000    5.0575880000    21.457530064    L0
Au    8.7600000000    5.0575880000    21.457530064    L0
Au    1.4600000000    0.8429310000    23.841700064    L0
Au    10.2200000000    0.8429310000    23.841700064    L0
Au    5.8400000000    8.4293140000    23.841700064    L0
Au    14.6000000000    8.4293140000    23.841700064    L0
Au    4.3800000000    0.8429310000    23.841700064    L0
Au    8.7600000000    8.4293140000    23.841700064    L0
Au    7.3000000000    0.8429310000    23.841700064    L0
Au    11.6800000000    8.4293140000    23.841700064    L0
Au    2.9200000000    3.3717260000    23.841700064    L0
Au    11.6800000000    3.3717260000    23.841700064    L0
Au    5.8400000000    3.3717260000    23.841700064    L0
Au    8.7600000000    3.3717260000    23.841700064    L0
Au    4.3800000000    5.9005200000    23.841700064    L0
Au    13.1400000000    5.9005200000    23.841700064    L0
Au    7.3000000000    5.9005200000    23.841700064    L0
Au    10.2200000000    5.9005200000    23.841700064    L0
Au    8.7600000000    1.6858630000    26.225870064    L0
Au    13.1400000000    9.2722450000    26.225870064    L0
Au    2.9200000000    1.6858630000    26.225870064    L0
Au    11.6800000000    1.6858630000    26.225870064    L0
Au    7.3000000000    9.2722450000    26.225870064    L0
Au    16.0599990000    9.2722450000    26.225870064    L0
Au    5.8400000000    1.6858630000    26.225870064    L0
Au    10.2200000000    9.2722450000    26.225870064    L0
Au    10.2200000000    4.2146570000    26.225870064    L0
Au    4.3800000000    4.2146570000    26.225870064    L0
Au    13.1400000000    4.2146570000    26.225870064    L0
Au    7.3000000000    4.2146570000    26.225870064    L0
Au    11.6800000000    6.7434510000    26.225870064    L0
Au    5.8400000000    6.7434510000    26.225870064    L0
Au    14.6000000000    6.7434510000    26.225870064    L0
Au    8.7600000000    6.7434510000    26.225870064    L0
C    8.8845577976    7.0793741802    40.8937271882    S
C    8.8365380561    5.6800631676    40.7919779555    S
C    8.8839510098    5.0681949529    39.5405727918    S
C    8.9759442485    5.8212039233    38.350671735199995    S
C    8.9905745681    7.8448133168    39.7147148911    S
C    9.0331881758    7.2233090285    38.4731277298    S
C    9.0040094749    5.1824047948    37.015299378899996    S
C    9.6382363734    3.9450564000    36.7978737026    S
C    9.6596482906    3.3604002091    35.5312229519    S
C    9.0466224884    3.9777675094    34.430005391099996    S
C    8.4028521920    5.8065944220    35.9026329581    S
C    8.4261851616    5.2199877868    34.6398793962    S
C    8.9494965015    3.2497735449    33.0892192957    S
C    9.2135160990    4.1425503527    31.8791103189    S
C    8.3347504834    4.1889905715    30.7879353099    S
C    8.5908222312    5.0080038208    29.6874785695    S
C    9.7548617622    5.7894255102    29.6412790354    S
C    10.3852565810    4.9167126979    31.8181919334    S
C    10.6655390208    5.7186687468    30.7155443088    S
H    8.7481710834    5.0712770066    41.694263061200004    S
H    8.8156429644    3.9808742676    39.485381981900005    S
S    8.7926338404    8.0325355290    42.389268254    S
H    9.0446513046    8.9314093548    39.783175413500004    S
H    9.1394300744    7.8394560236    37.5797241133    S
H    7.8862696635    6.7579772190    36.0360915463    S
H    10.1477159030    3.4482768649    37.6247594883    S
H    10.1679992085    2.4026961108    35.3945729781    S
H    7.9493701325    5.7338121685    33.8024117322    S
H    11.0920578165    4.8947614290    32.6500373796    S
H    7.4432719884    3.5630153448    30.7965851891    S
H    7.8762322463    5.0520318255    28.8637486897    S
S    10.0585324000    7.0209386958    28.398799109400002    S
H    11.5813721545    6.3094245257    30.687497361    S
N    7.6655145781    2.5295061241    32.948104792    S
H    9.7318202762    2.4701000797    33.0828563867    S
H    6.8915666655    3.1773252615    33.1384929567    S
H    7.6070891258    1.8166160466    33.6817617083    S
Au    0.0000000000    0.0000000000    44.5253323271    R0
Au    8.7600000000    0.0000000000    44.5253323271    R0
Au    4.3800000000    7.5863820000    44.5253323271    R0
Au    13.1400000000    7.5863820000    44.5253323271    R0
Au    2.9200000000    0.0000000000    44.5253323271    R0
Au    7.3000000000    7.5863820000    44.5253323271    R0
Au    5.8400000000    0.0000000000    44.5253323271    R0
Au    10.2200000000    7.5863820000    44.5253323271    R0
Au    1.4600000000    2.5287940000    44.5253323271    R0
Au    10.2200000000    2.5287940000    44.5253323271    R0
Au    4.3800000000    2.5287940000    44.5253323271    R0
Au    7.3000000000    2.5287940000    44.5253323271    R0
Au    2.9200000000    5.0575880000    44.5253323271    R0
Au    11.6800000000    5.0575880000    44.5253323271    R0
Au    5.8400000000    5.0575880000    44.5253323271    R0
Au    8.7600000000    5.0575880000    44.5253323271    R0
Au    1.4600000000    0.8429310000    46.9095023271    R0
Au    10.2200000000    0.8429310000    46.9095023271    R0
Au    5.8400000000    8.4293140000    46.9095023271    R0
Au    14.6000000000    8.4293140000    46.9095023271    R0
Au    4.3800000000    0.8429310000    46.9095023271    R0
Au    8.7600000000    8.4293140000    46.9095023271    R0
Au    7.3000000000    0.8429310000    46.9095023271    R0
Au    11.6800000000    8.4293140000    46.9095023271    R0
Au    2.9200000000    3.3717260000    46.9095023271    R0
Au    11.6800000000    3.3717260000    46.9095023271    R0
Au    5.8400000000    3.3717260000    46.9095023271    R0
Au    8.7600000000    3.3717260000    46.9095023271    R0
Au    4.3800000000    5.9005200000    46.9095023271    R0
Au    13.1400000000    5.9005200000    46.9095023271    R0
Au    7.3000000000    5.9005200000    46.9095023271    R0
Au    10.2200000000    5.9005200000    46.9095023271    R0
Au    8.7600000000    1.6858630000    49.2936723271    R0
Au    13.1400000000    9.2722450000    49.2936723271    R0
Au    2.9200000000    1.6858630000    49.2936723271    R0
Au    11.6800000000    1.6858630000    49.2936723271    R0
Au    7.3000000000    9.2722450000    49.2936723271    R0
Au    16.0599990000    9.2722450000    49.2936723271    R0
Au    5.8400000000    1.6858630000    49.2936723271    R0
Au    10.2200000000    9.2722450000    49.2936723271    R0
Au    10.2200000000    4.2146570000    49.2936723271    R0
Au    4.3800000000    4.2146570000    49.2936723271    R0
Au    13.1400000000    4.2146570000    49.2936723271    R0
Au    7.3000000000    4.2146570000    49.2936723271    R0
Au    11.6800000000    6.7434510000    49.2936723271    R0
Au    5.8400000000    6.7434510000    49.2936723271    R0
Au    14.6000000000    6.7434510000    49.2936723271    R0
Au    8.7600000000    6.7434510000    49.2936723271    R0
Au    0.000000    0.000000    51.6778423991    R1
Au    8.760000    0.000000    51.6778423991    R1
Au    4.380000    7.586382    51.6778423991    R1
Au    13.140000    7.586382    51.6778423991    R1
Au    2.920000    0.000000    51.6778423991    R1
Au    7.300000    7.586382    51.6778423991    R1
Au    5.840000    0.000000    51.6778423991    R1
Au    10.220000    7.586382    51.6778423991    R1
Au    1.460000    2.528794    51.6778423991    R1
Au    10.220000    2.528794    51.6778423991    R1
Au    4.380000    2.528794    51.6778423991    R1
Au    7.300000    2.528794    51.6778423991    R1
Au    2.920000    5.057588    51.6778423991    R1
Au    11.680000    5.057588    51.6778423991    R1
Au    5.840000    5.057588    51.6778423991    R1
Au    8.760000    5.057588    51.6778423991    R1
Au    1.460000    0.842931    54.0620123991    R1
Au    10.220000    0.842931    54.0620123991    R1
Au    5.840000    8.429314    54.0620123991    R1
Au    14.600000    8.429314    54.0620123991    R1
Au    4.380000    0.842931    54.0620123991    R1
Au    8.760000    8.429314    54.0620123991    R1
Au    7.300000    0.842931    54.0620123991    R1
Au    11.680000    8.429314    54.0620123991    R1
Au    2.920000    3.371726    54.0620123991    R1
Au    11.680000    3.371726    54.0620123991    R1
Au    5.840000    3.371726    54.0620123991    R1
Au    8.760000    3.371726    54.0620123991    R1
Au    4.380000    5.900520    54.0620123991    R1
Au    13.140000    5.900520    54.0620123991    R1
Au    7.300000    5.900520    54.0620123991    R1
Au    10.220000    5.900520    54.0620123991    R1
Au    8.760000    1.685863    56.4461823991    R1
Au    13.140000    9.272245    56.4461823991    R1
Au    2.920000    1.685863    56.4461823991    R1
Au    11.680000    1.685863    56.4461823991    R1
Au    7.300000    9.272245    56.4461823991    R1
Au    16.059999    9.272245    56.4461823991    R1
Au    5.840000    1.685863    56.4461823991    R1
Au    10.220000    9.272245    56.4461823991    R1
Au    10.220000    4.214657    56.4461823991    R1
Au    4.380000    4.214657    56.4461823991    R1
Au    13.140000    4.214657    56.4461823991    R1
Au    7.300000    4.214657    56.4461823991    R1
Au    11.680000    6.743451    56.4461823991    R1
Au    5.840000    6.743451    56.4461823991    R1
Au    14.600000    6.743451    56.4461823991    R1
Au    8.760000    6.743451    56.4461823991    R1
Au    0.000000    0.000000    58.8303513991    R2
Au    8.760000    0.000000    58.8303513991    R2
Au    4.380000    7.586382    58.8303513991    R2
Au    13.140000    7.586382    58.8303513991    R2
Au    2.920000    0.000000    58.8303513991    R2
Au    7.300000    7.586382    58.8303513991    R2
Au    5.840000    0.000000    58.8303513991    R2
Au    10.220000    7.586382    58.8303513991    R2
Au    1.460000    2.528794    58.8303513991    R2
Au    10.220000    2.528794    58.8303513991    R2
Au    4.380000    2.528794    58.8303513991    R2
Au    7.300000    2.528794    58.8303513991    R2
Au    2.920000    5.057588    58.8303513991    R2
Au    11.680000    5.057588    58.8303513991    R2
Au    5.840000    5.057588    58.8303513991    R2
Au    8.760000    5.057588    58.8303513991    R2
Au    1.460000    0.842931    61.214522399100005    R2
Au    10.220000    0.842931    61.214522399100005    R2
Au    5.840000    8.429314    61.214522399100005    R2
Au    14.600000    8.429314    61.214522399100005    R2
Au    4.380000    0.842931    61.214522399100005    R2
Au    8.760000    8.429314    61.214522399100005    R2
Au    7.300000    0.842931    61.214522399100005    R2
Au    11.680000    8.429314    61.214522399100005    R2
Au    2.920000    3.371726    61.214522399100005    R2
Au    11.680000    3.371726    61.214522399100005    R2
Au    5.840000    3.371726    61.214522399100005    R2
Au    8.760000    3.371726    61.214522399100005    R2
Au    4.380000    5.900520    61.214522399100005    R2
Au    13.140000    5.900520    61.214522399100005    R2
Au    7.300000    5.900520    61.214522399100005    R2
Au    10.220000    5.900520    61.214522399100005    R2
Au    8.760000    1.685863    63.5986923991    R2
Au    13.140000    9.272245    63.5986923991    R2
Au    2.920000    1.685863    63.5986923991    R2
Au    11.680000    1.685863    63.5986923991    R2
Au    7.300000    9.272245    63.5986923991    R2
Au    16.059999    9.272245    63.5986923991    R2
Au    5.840000    1.685863    63.5986923991    R2
Au    10.220000    9.272245    63.5986923991    R2
Au    10.220000    4.214657    63.5986923991    R2
Au    4.380000    4.214657    63.5986923991    R2
Au    13.140000    4.214657    63.5986923991    R2
Au    7.300000    4.214657    63.5986923991    R2
Au    11.680000    6.743451    63.5986923991    R2
Au    5.840000    6.743451    63.5986923991    R2
Au    14.600000    6.743451    63.5986923991    R2
Au    8.760000    6.743451    63.5986923991    R2
Au    0.000000    0.000000    65.9828613991    R3
Au    8.760000    0.000000    65.9828613991    R3
Au    4.380000    7.586382    65.9828613991    R3
Au    13.140000    7.586382    65.9828613991    R3
Au    2.920000    0.000000    65.9828613991    R3
Au    7.300000    7.586382    65.9828613991    R3
Au    5.840000    0.000000    65.9828613991    R3
Au    10.220000    7.586382    65.9828613991    R3
Au    1.460000    2.528794    65.9828613991    R3
Au    10.220000    2.528794    65.9828613991    R3
Au    4.380000    2.528794    65.9828613991    R3
Au    7.300000    2.528794    65.9828613991    R3
Au    2.920000    5.057588    65.9828613991    R3
Au    11.680000    5.057588    65.9828613991    R3
Au    5.840000    5.057588    65.9828613991    R3
Au    8.760000    5.057588    65.9828613991    R3
Au    1.460000    0.842931    68.3670323991    R3
Au    10.220000    0.842931    68.3670323991    R3
Au    5.840000    8.429314    68.3670323991    R3
Au    14.600000    8.429314    68.3670323991    R3
Au    4.380000    0.842931    68.3670323991    R3
Au    8.760000    8.429314    68.3670323991    R3
Au    7.300000    0.842931    68.3670323991    R3
Au    11.680000    8.429314    68.3670323991    R3
Au    2.920000    3.371726    68.3670323991    R3
Au    11.680000    3.371726    68.3670323991    R3
Au    5.840000    3.371726    68.3670323991    R3
Au    8.760000    3.371726    68.3670323991    R3
Au    4.380000    5.900520    68.3670323991    R3
Au    13.140000    5.900520    68.3670323991    R3
Au    7.300000    5.900520    68.3670323991    R3
Au    10.220000    5.900520    68.3670323991    R3
Au    8.760000    1.685863    70.75120239910001    R3
Au    13.140000    9.272245    70.75120239910001    R3
Au    2.920000    1.685863    70.75120239910001    R3
Au    11.680000    1.685863    70.75120239910001    R3
Au    7.300000    9.272245    70.75120239910001    R3
Au    16.059999    9.272245    70.75120239910001    R3
Au    5.840000    1.685863    70.75120239910001    R3
Au    10.220000    9.272245    70.75120239910001    R3
Au    10.220000    4.214657    70.75120239910001    R3
Au    4.380000    4.214657    70.75120239910001    R3
Au    13.140000    4.214657    70.75120239910001    R3
Au    7.300000    4.214657    70.75120239910001    R3
Au    11.680000    6.743451    70.75120239910001    R3
Au    5.840000    6.743451    70.75120239910001    R3
Au    14.600000    6.743451    70.75120239910001    R3
Au    8.760000    6.743451    70.75120239910001    R3
