     171
 i =        2, E =     -3409.2584713927
 Au         0.0000000000        0.0000000000        0.0000000000
 Au         8.7600000000        0.0000000000        0.0000000000
 Au         4.3800000000        7.5863820000        0.0000000000
 Au        13.1400000000        7.5863820000        0.0000000000
 Au         2.9200000000        0.0000000000        0.0000000000
 Au        11.6800000000        0.0000000000        0.0000000000
 Au         7.3000000000        7.5863820000        0.0000000000
 Au        16.0599990000        7.5863820000        0.0000000000
 Au         5.8400000000        0.0000000000        0.0000000000
 Au        14.6000000000        0.0000000000        0.0000000000
 Au        10.2200000000        7.5863820000        0.0000000000
 Au        18.9800000000        7.5863820000        0.0000000000
 Au         1.4600000000        2.5287940000        0.0000000000
 Au        10.2200000000        2.5287940000        0.0000000000
 Au         5.8400000000       10.1151760000        0.0000000000
 Au        14.6000000000       10.1151760000        0.0000000000
 Au         4.3800000000        2.5287940000        0.0000000000
 Au        13.1400000000        2.5287940000        0.0000000000
 Au         8.7600000000       10.1151760000        0.0000000000
 Au        17.5200000000       10.1151760000        0.0000000000
 Au         7.3000000000        2.5287940000        0.0000000000
 Au        16.0599990000        2.5287940000        0.0000000000
 Au        11.6800000000       10.1151760000        0.0000000000
 Au        20.4400010000       10.1151760000        0.0000000000
 Au         2.9200000000        5.0575880000        0.0000000000
 Au        11.6800000000        5.0575880000        0.0000000000
 Au         5.8400000000        5.0575880000        0.0000000000
 Au        14.6000000000        5.0575880000        0.0000000000
 Au         8.7600000000        5.0575880000        0.0000000000
 Au        17.5200000000        5.0575880000        0.0000000000
 Au         1.4600000000        0.8429310000        2.3841700000
 Au        10.2200000000        0.8429310000        2.3841700000
 Au         5.8400000000        8.4293140000        2.3841700000
 Au        14.6000000000        8.4293140000        2.3841700000
 Au         4.3800000000        0.8429310000        2.3841700000
 Au        13.1400000000        0.8429310000        2.3841700000
 Au         8.7600000000        8.4293140000        2.3841700000
 Au        17.5200000000        8.4293140000        2.3841700000
 Au         7.3000000000        0.8429310000        2.3841700000
 Au        16.0599990000        0.8429310000        2.3841700000
 Au        11.6800000000        8.4293140000        2.3841700000
 Au        20.4400010000        8.4293140000        2.3841700000
 Au         2.9200000000        3.3717260000        2.3841700000
 Au        11.6800000000        3.3717260000        2.3841700000
 Au         7.3000000000       10.9581080000        2.3841700000
 Au        16.0599990000       10.9581080000        2.3841700000
 Au         5.8400000000        3.3717260000        2.3841700000
 Au        14.6000000000        3.3717260000        2.3841700000
 Au        10.2200000000       10.9581080000        2.3841700000
 Au        18.9800000000       10.9581080000        2.3841700000
 Au         8.7600000000        3.3717260000        2.3841700000
 Au        17.5200000000        3.3717260000        2.3841700000
 Au        13.1400000000       10.9581080000        2.3841700000
 Au        21.9000000000       10.9581080000        2.3841700000
 Au         4.3800000000        5.9005200000        2.3841700000
 Au        13.1400000000        5.9005200000        2.3841700000
 Au         7.3000000000        5.9005200000        2.3841700000
 Au        16.0599990000        5.9005200000        2.3841700000
 Au        10.2200000000        5.9005200000        2.3841700000
 Au        18.9800000000        5.9005200000        2.3841700000
 Au         0.0000000000        1.6858630000        4.7683400000
 Au         8.7600000000        1.6858630000        4.7683400000
 Au         4.3800000000        9.2722450000        4.7683400000
 Au        13.1400000000        9.2722450000        4.7683400000
 Au         2.9200000000        1.6858630000        4.7683400000
 Au        11.6800000000        1.6858630000        4.7683400000
 Au         7.3000000000        9.2722450000        4.7683400000
 Au        16.0599990000        9.2722450000        4.7683400000
 Au         5.8400000000        1.6858630000        4.7683400000
 Au        14.6000000000        1.6858630000        4.7683400000
 Au        10.2200000000        9.2722450000        4.7683400000
 Au        18.9800000000        9.2722450000        4.7683400000
 Au         1.4600000000        4.2146570000        4.7683400000
 Au        10.2200000000        4.2146570000        4.7683400000
 Au         5.8400000000       11.8010400000        4.7683400000
 Au        14.6000000000       11.8010400000        4.7683400000
 Au         4.3800000000        4.2146570000        4.7683400000
 Au        13.1400000000        4.2146570000        4.7683400000
 Au         8.7600000000       11.8010400000        4.7683400000
 Au        17.5200000000       11.8010400000        4.7683400000
 Au         7.3000000000        4.2146570000        4.7683400000
 Au        16.0599990000        4.2146570000        4.7683400000
 Au        11.6800000000       11.8010400000        4.7683400000
 Au        20.4400010000       11.8010400000        4.7683400000
 Au         2.9200000000        6.7434510000        4.7683400000
 Au        11.6800000000        6.7434510000        4.7683400000
 Au         5.8400000000        6.7434510000        4.7683400000
 Au        14.6000000000        6.7434510000        4.7683400000
 Au         8.7600000000        6.7434510000        4.7683400000
 Au        17.5200000000        6.7434510000        4.7683400000
  H        11.9074942788        6.2297586879       11.5241635621
  C        11.7232242951        6.8632059113       10.6544892513
  C        11.9306182813        8.2452686139       10.7489986464
  C        11.6823133526        9.0410670798        9.6171955394
  H        11.8337676736       10.1203251617        9.6750316163
  C        11.2412095921        8.4739965808        8.4240836303
  H        11.0566639557        9.1030377526        7.5516113017
  C        11.0379663245        7.0864127076        8.3409374767
  C        11.2843433392        6.2815410592        9.4673522490
  H        11.1290187091        5.2043787339        9.4077556770
  C        12.4239591308        8.8463012297       12.0410037824
  N        11.4696141699        9.8061169354       12.6416488090
  H        13.3506386261        9.4126402552       11.8553720899
  H        12.6848836522        8.0315124615       12.7401459310
  C        11.9196107260       10.3611595867       13.9027420706
  C        10.1248841013        9.3230953344       12.8917158929
  C         9.0995008089        9.3527994165       20.6874192642
  C         8.6299662999        8.0632717009       21.1566129465
  C         9.7857702824        7.2642036606       21.5132430688
  C        10.9785445500        8.0597463455       21.2674002847
  C        10.5525842027        9.3496692570       20.7508624127
  C        11.2973026876        9.9783841005       19.7487096186
  C        12.5015216837        9.3561243401       19.2299334265
  C        12.9149249826        8.1152989751       19.7329064132
  C        12.1333929530        7.4547918332       20.7654349640
  C        12.1433014027        6.0265627684       20.4879560709
  C        10.9972322663        5.2612133882       20.7220867660
  C         9.7955735470        5.8901540255       21.2461069014
  C         8.6493301145        5.2645922150       20.6167469665
  C         7.5303543710        6.0333025055       20.2753028530
  C         7.5195649349        7.4572048443       20.5470735208
  C         6.8437539003        8.1215710005       19.4491467593
  C         6.4386683156        7.1042185783       18.4919167630
  C         6.8575750798        5.8104656375       19.0049333281
  C         7.3257432377        4.8303530137       18.1262344996
  C         8.4882189628        4.0306965805       18.4818368526
  C         9.1373738106        4.2459624297       19.7010889007
  C        10.5891203119        4.2468106445       19.7649709032
  C        11.3392675702        4.0415863949       18.6029050146
  C        12.5268333581        4.8418126796       18.3559935759
  C        12.9274422794        5.8122640168       19.2845297113
  C        13.4030861617        7.1009983631       18.8191895375
  C        13.4582799490        7.3703405868       17.4458703640
  C        13.0291600782        8.6563126749       16.9254559160
  C        12.5715362059        9.6304711211       17.8067259605
  C        11.3884244787       10.4157808503       17.4398077822
  C        10.7605217457       10.2147598177       16.2203662497
  C        11.3765370006        9.4145727363       15.0717441417
  C        12.3784637576        8.4486407067       15.6368931596
  C        12.3537561123        7.0685154066       15.3967583048
  C        13.0342313048        6.3716883987       16.4944536760
  C        12.5828089632        5.1330191159       16.9385676922
  C        11.4254837439        4.4999825112       16.3032918143
  C        10.6649951155        3.8243774665       17.3343220398
  C         9.2644921270        3.8116190438       17.2741041973
  C         8.5851013553        4.4697547795       16.1744453552
  C         7.3879492912        5.0981198023       16.6987644814
  C         6.9895115937        6.3475168052       16.2041385195
  C         6.5103109867        7.3658789980       17.1204880744
  C         6.9975259390        8.6533417856       16.6553210882
  C         7.7745054661        8.4436162805       15.4540795143
  C         7.7624412152        7.0053904560       15.1674166668
  C         8.9184601440        6.4112422518       14.6720604486
  C         9.3311680185        5.1156062313       15.1805335328
  C        10.7728465632        5.1345164297       15.2519059674
  C        11.2224411369        6.4480707619       14.7748277882
  C        10.1077426667        7.2071652227       14.4004991125
  C        10.0900529476        8.7056051728       14.3652752917
  C         8.9065684530        9.2035638303       15.1984524730
  C         9.3279693194       10.1781357718       16.1636153741
  C         8.5594692750       10.4169367338       17.3269045716
  C         7.3700866330        9.6385679058       17.5760615569
  C         7.2948402155        9.3668656379       18.9993755167
  C         8.4448561721        9.9947268652       19.6309212733
  C         9.2176897853       10.6470311783       18.5907200808
  C        10.6155903270       10.6284115798       18.6427459627
  H         9.8061307263        8.6010440430       12.1319911612
  H         9.4262368947       10.1734320952       12.8747813098
  S        10.4228803016        6.2307764266        6.9117881103
  H        11.4677698172       11.3541166578       14.0511882043
  H        13.0104109556       10.4695236455       13.9326531655
 Au         0.0000000000        0.0000000000        0.0000000000
 Au         8.7600000000        0.0000000000        0.0000000000
 Au         4.3800000000        7.5863820000        0.0000000000
 Au        13.1400000000        7.5863820000        0.0000000000
 Au         2.9200000000        0.0000000000        0.0000000000
 Au        11.6800000000        0.0000000000        0.0000000000
 Au         7.3000000000        7.5863820000        0.0000000000
 Au        16.0599990000        7.5863820000        0.0000000000
 Au         5.8400000000        0.0000000000        0.0000000000
 Au        14.6000000000        0.0000000000        0.0000000000
 Au        10.2200000000        7.5863820000        0.0000000000
 Au        18.9800000000        7.5863820000        0.0000000000
 Au         1.4600000000        2.5287940000        0.0000000000
 Au        10.2200000000        2.5287940000        0.0000000000
 Au         5.8400000000       10.1151760000        0.0000000000
 Au        14.6000000000       10.1151760000        0.0000000000
 Au         4.3800000000        2.5287940000        0.0000000000
 Au        13.1400000000        2.5287940000        0.0000000000
 Au         8.7600000000       10.1151760000        0.0000000000
 Au        17.5200000000       10.1151760000        0.0000000000
 Au         7.3000000000        2.5287940000        0.0000000000
 Au        16.0599990000        2.5287940000        0.0000000000
 Au        11.6800000000       10.1151760000        0.0000000000
 Au        20.4400010000       10.1151760000        0.0000000000
 Au         2.9200000000        5.0575880000        0.0000000000
 Au        11.6800000000        5.0575880000        0.0000000000
 Au         5.8400000000        5.0575880000        0.0000000000
 Au        14.6000000000        5.0575880000        0.0000000000
 Au         8.7600000000        5.0575880000        0.0000000000
 Au        17.5200000000        5.0575880000        0.0000000000
 Au         1.4600000000        0.8429310000        2.3841700000
 Au        10.2200000000        0.8429310000        2.3841700000
 Au         5.8400000000        8.4293140000        2.3841700000
 Au        14.6000000000        8.4293140000        2.3841700000
 Au         4.3800000000        0.8429310000        2.3841700000
 Au        13.1400000000        0.8429310000        2.3841700000
 Au         8.7600000000        8.4293140000        2.3841700000
 Au        17.5200000000        8.4293140000        2.3841700000
 Au         7.3000000000        0.8429310000        2.3841700000
 Au        16.0599990000        0.8429310000        2.3841700000
 Au        11.6800000000        8.4293140000        2.3841700000
 Au        20.4400010000        8.4293140000        2.3841700000
 Au         2.9200000000        3.3717260000        2.3841700000
 Au        11.6800000000        3.3717260000        2.3841700000
 Au         7.3000000000       10.9581080000        2.3841700000
 Au        16.0599990000       10.9581080000        2.3841700000
 Au         5.8400000000        3.3717260000        2.3841700000
 Au        14.6000000000        3.3717260000        2.3841700000
 Au        10.2200000000       10.9581080000        2.3841700000
 Au        18.9800000000       10.9581080000        2.3841700000
 Au         8.7600000000        3.3717260000        2.3841700000
 Au        17.5200000000        3.3717260000        2.3841700000
 Au        13.1400000000       10.9581080000        2.3841700000
 Au        21.9000000000       10.9581080000        2.3841700000
 Au         4.3800000000        5.9005200000        2.3841700000
 Au        13.1400000000        5.9005200000        2.3841700000
 Au         7.3000000000        5.9005200000        2.3841700000
 Au        16.0599990000        5.9005200000        2.3841700000
 Au        10.2200000000        5.9005200000        2.3841700000
 Au        18.9800000000        5.9005200000        2.3841700000
 Au         0.0000000000        1.6858630000        4.7683400000
 Au         8.7600000000        1.6858630000        4.7683400000
 Au         4.3800000000        9.2722450000        4.7683400000
 Au        13.1400000000        9.2722450000        4.7683400000
 Au         2.9200000000        1.6858630000        4.7683400000
 Au        11.6800000000        1.6858630000        4.7683400000
 Au         7.3000000000        9.2722450000        4.7683400000
 Au        16.0599990000        9.2722450000        4.7683400000
 Au         5.8400000000        1.6858630000        4.7683400000
 Au        14.6000000000        1.6858630000        4.7683400000
 Au        10.2200000000        9.2722450000        4.7683400000
 Au        18.9800000000        9.2722450000        4.7683400000
 Au         1.4600000000        4.2146570000        4.7683400000
 Au        10.2200000000        4.2146570000        4.7683400000
 Au         5.8400000000       11.8010400000        4.7683400000
 Au        14.6000000000       11.8010400000        4.7683400000
 Au         4.3800000000        4.2146570000        4.7683400000
 Au        13.1400000000        4.2146570000        4.7683400000
 Au         8.7600000000       11.8010400000        4.7683400000
 Au        17.5200000000       11.8010400000        4.7683400000
 Au         7.3000000000        4.2146570000        4.7683400000
 Au        16.0599990000        4.2146570000        4.7683400000
 Au        11.6800000000       11.8010400000        4.7683400000
 Au        20.4400010000       11.8010400000        4.7683400000
 Au         2.9200000000        6.7434510000        4.7683400000
 Au        11.6800000000        6.7434510000        4.7683400000
 Au         5.8400000000        6.7434510000        4.7683400000
 Au        14.6000000000        6.7434510000        4.7683400000
 Au         8.7600000000        6.7434510000        4.7683400000
 Au        17.5200000000        6.7434510000        4.7683400000
Au    0.000000    0.000000    0.000000    R0
Au    8.760000    0.000000    0.000000    R0
Au    4.380000    7.586382    0.000000    R0
Au    13.140000    7.586382    0.000000    R0
Au    2.920000    0.000000    0.000000    R0
Au    11.680000    0.000000    0.000000    R0
Au    7.300000    7.586382    0.000000    R0
Au    16.059999    7.586382    0.000000    R0
Au    5.840000    0.000000    0.000000    R0
Au    14.600000    0.000000    0.000000    R0
Au    10.220000    7.586382    0.000000    R0
Au    18.980000    7.586382    0.000000    R0
Au    1.460000    2.528794    0.000000    R0
Au    10.220000    2.528794    0.000000    R0
Au    5.840000    10.115176    0.000000    R0
Au    14.600000    10.115176    0.000000    R0
Au    4.380000    2.528794    0.000000    R0
Au    13.140000    2.528794    0.000000    R0
Au    8.760000    10.115176    0.000000    R0
Au    17.520000    10.115176    0.000000    R0
Au    7.300000    2.528794    0.000000    R0
Au    16.059999    2.528794    0.000000    R0
Au    11.680000    10.115176    0.000000    R0
Au    20.440001    10.115176    0.000000    R0
Au    2.920000    5.057588    0.000000    R0
Au    11.680000    5.057588    0.000000    R0
Au    5.840000    5.057588    0.000000    R0
Au    14.600000    5.057588    0.000000    R0
Au    8.760000    5.057588    0.000000    R0
Au    17.520000    5.057588    0.000000    R0
Au    1.460000    0.842931    2.384170    R0
Au    10.220000    0.842931    2.384170    R0
Au    5.840000    8.429314    2.384170    R0
Au    14.600000    8.429314    2.384170    R0
Au    4.380000    0.842931    2.384170    R0
Au    13.140000    0.842931    2.384170    R0
Au    8.760000    8.429314    2.384170    R0
Au    17.520000    8.429314    2.384170    R0
Au    7.300000    0.842931    2.384170    R0
Au    16.059999    0.842931    2.384170    R0
Au    11.680000    8.429314    2.384170    R0
Au    20.440001    8.429314    2.384170    R0
Au    2.920000    3.371726    2.384170    R0
Au    11.680000    3.371726    2.384170    R0
Au    7.300000    10.958108    2.384170    R0
Au    16.059999    10.958108    2.384170    R0
Au    5.840000    3.371726    2.384170    R0
Au    14.600000    3.371726    2.384170    R0
Au    10.220000    10.958108    2.384170    R0
Au    18.980000    10.958108    2.384170    R0
Au    8.760000    3.371726    2.384170    R0
Au    17.520000    3.371726    2.384170    R0
Au    13.140000    10.958108    2.384170    R0
Au    21.900000    10.958108    2.384170    R0
Au    4.380000    5.900520    2.384170    R0
Au    13.140000    5.900520    2.384170    R0
Au    7.300000    5.900520    2.384170    R0
Au    16.059999    5.900520    2.384170    R0
Au    10.220000    5.900520    2.384170    R0
Au    18.980000    5.900520    2.384170    R0
Au    0.000000    1.685863    4.768340    R0
Au    8.760000    1.685863    4.768340    R0
Au    4.380000    9.272245    4.768340    R0
Au    13.140000    9.272245    4.768340    R0
Au    2.920000    1.685863    4.768340    R0
Au    11.680000    1.685863    4.768340    R0
Au    7.300000    9.272245    4.768340    R0
Au    16.059999    9.272245    4.768340    R0
Au    5.840000    1.685863    4.768340    R0
Au    14.600000    1.685863    4.768340    R0
Au    10.220000    9.272245    4.768340    R0
Au    18.980000    9.272245    4.768340    R0
Au    1.460000    4.214657    4.768340    R0
Au    10.220000    4.214657    4.768340    R0
Au    5.840000    11.801040    4.768340    R0
Au    14.600000    11.801040    4.768340    R0
Au    4.380000    4.214657    4.768340    R0
Au    13.140000    4.214657    4.768340    R0
Au    8.760000    11.801040    4.768340    R0
Au    17.520000    11.801040    4.768340    R0
Au    7.300000    4.214657    4.768340    R0
Au    16.059999    4.214657    4.768340    R0
Au    11.680000    11.801040    4.768340    R0
Au    20.440001    11.801040    4.768340    R0
Au    2.920000    6.743451    4.768340    R0
Au    11.680000    6.743451    4.768340    R0
Au    5.840000    6.743451    4.768340    R0
Au    14.600000    6.743451    4.768340    R0
Au    8.760000    6.743451    4.768340    R0
Au    17.520000    6.743451    4.768340    R0
Au    0.000000    0.000000    7.152510    R1
Au    8.760000    0.000000    7.152510    R1
Au    4.380000    7.586382    7.152510    R1
Au    13.140000    7.586382    7.152510    R1
Au    2.920000    0.000000    7.152510    R1
Au    11.680000    0.000000    7.152510    R1
Au    7.300000    7.586382    7.152510    R1
Au    16.059999    7.586382    7.152510    R1
Au    5.840000    0.000000    7.152510    R1
Au    14.600000    0.000000    7.152510    R1
Au    10.220000    7.586382    7.152510    R1
Au    18.980000    7.586382    7.152510    R1
Au    1.460000    2.528794    7.152510    R1
Au    10.220000    2.528794    7.152510    R1
Au    5.840000    10.115176    7.152510    R1
Au    14.600000    10.115176    7.152510    R1
Au    4.380000    2.528794    7.152510    R1
Au    13.140000    2.528794    7.152510    R1
Au    8.760000    10.115176    7.152510    R1
Au    17.520000    10.115176    7.152510    R1
Au    7.300000    2.528794    7.152510    R1
Au    16.059999    2.528794    7.152510    R1
Au    11.680000    10.115176    7.152510    R1
Au    20.440001    10.115176    7.152510    R1
Au    2.920000    5.057588    7.152510    R1
Au    11.680000    5.057588    7.152510    R1
Au    5.840000    5.057588    7.152510    R1
Au    14.600000    5.057588    7.152510    R1
Au    8.760000    5.057588    7.152510    R1
Au    17.520000    5.057588    7.152510    R1
Au    1.460000    0.842931    9.536680    R1
Au    10.220000    0.842931    9.536680    R1
Au    5.840000    8.429314    9.536680    R1
Au    14.600000    8.429314    9.536680    R1
Au    4.380000    0.842931    9.536680    R1
Au    13.140000    0.842931    9.536680    R1
Au    8.760000    8.429314    9.536680    R1
Au    17.520000    8.429314    9.536680    R1
Au    7.300000    0.842931    9.536680    R1
Au    16.059999    0.842931    9.536680    R1
Au    11.680000    8.429314    9.536680    R1
Au    20.440001    8.429314    9.536680    R1
Au    2.920000    3.371726    9.536680    R1
Au    11.680000    3.371726    9.536680    R1
Au    7.300000    10.958108    9.536680    R1
Au    16.059999    10.958108    9.536680    R1
Au    5.840000    3.371726    9.536680    R1
Au    14.600000    3.371726    9.536680    R1
Au    10.220000    10.958108    9.536680    R1
Au    18.980000    10.958108    9.536680    R1
Au    8.760000    3.371726    9.536680    R1
Au    17.520000    3.371726    9.536680    R1
Au    13.140000    10.958108    9.536680    R1
Au    21.900000    10.958108    9.536680    R1
Au    4.380000    5.900520    9.536680    R1
Au    13.140000    5.900520    9.536680    R1
Au    7.300000    5.900520    9.536680    R1
Au    16.059999    5.900520    9.536680    R1
Au    10.220000    5.900520    9.536680    R1
Au    18.980000    5.900520    9.536680    R1
Au    0.000000    1.685863    11.920850    R1
Au    8.760000    1.685863    11.920850    R1
Au    4.380000    9.272245    11.920850    R1
Au    13.140000    9.272245    11.920850    R1
Au    2.920000    1.685863    11.920850    R1
Au    11.680000    1.685863    11.920850    R1
Au    7.300000    9.272245    11.920850    R1
Au    16.059999    9.272245    11.920850    R1
Au    5.840000    1.685863    11.920850    R1
Au    14.600000    1.685863    11.920850    R1
Au    10.220000    9.272245    11.920850    R1
Au    18.980000    9.272245    11.920850    R1
Au    1.460000    4.214657    11.920850    R1
Au    10.220000    4.214657    11.920850    R1
Au    5.840000    11.801040    11.920850    R1
Au    14.600000    11.801040    11.920850    R1
Au    4.380000    4.214657    11.920850    R1
Au    13.140000    4.214657    11.920850    R1
Au    8.760000    11.801040    11.920850    R1
Au    17.520000    11.801040    11.920850    R1
Au    7.300000    4.214657    11.920850    R1
Au    16.059999    4.214657    11.920850    R1
Au    11.680000    11.801040    11.920850    R1
Au    20.440001    11.801040    11.920850    R1
Au    2.920000    6.743451    11.920850    R1
Au    11.680000    6.743451    11.920850    R1
Au    5.840000    6.743451    11.920850    R1
Au    14.600000    6.743451    11.920850    R1
Au    8.760000    6.743451    11.920850    R1
Au    17.520000    6.743451    11.920850    R1
Au    0.000000    0.000000    14.305019    R2
Au    8.760000    0.000000    14.305019    R2
Au    4.380000    7.586382    14.305019    R2
Au    13.140000    7.586382    14.305019    R2
Au    2.920000    0.000000    14.305019    R2
Au    11.680000    0.000000    14.305019    R2
Au    7.300000    7.586382    14.305019    R2
Au    16.059999    7.586382    14.305019    R2
Au    5.840000    0.000000    14.305019    R2
Au    14.600000    0.000000    14.305019    R2
Au    10.220000    7.586382    14.305019    R2
Au    18.980000    7.586382    14.305019    R2
Au    1.460000    2.528794    14.305019    R2
Au    10.220000    2.528794    14.305019    R2
Au    5.840000    10.115176    14.305019    R2
Au    14.600000    10.115176    14.305019    R2
Au    4.380000    2.528794    14.305019    R2
Au    13.140000    2.528794    14.305019    R2
Au    8.760000    10.115176    14.305019    R2
Au    17.520000    10.115176    14.305019    R2
Au    7.300000    2.528794    14.305019    R2
Au    16.059999    2.528794    14.305019    R2
Au    11.680000    10.115176    14.305019    R2
Au    20.440001    10.115176    14.305019    R2
Au    2.920000    5.057588    14.305019    R2
Au    11.680000    5.057588    14.305019    R2
Au    5.840000    5.057588    14.305019    R2
Au    14.600000    5.057588    14.305019    R2
Au    8.760000    5.057588    14.305019    R2
Au    17.520000    5.057588    14.305019    R2
Au    1.460000    0.842931    16.689190    R2
Au    10.220000    0.842931    16.689190    R2
Au    5.840000    8.429314    16.689190    R2
Au    14.600000    8.429314    16.689190    R2
Au    4.380000    0.842931    16.689190    R2
Au    13.140000    0.842931    16.689190    R2
Au    8.760000    8.429314    16.689190    R2
Au    17.520000    8.429314    16.689190    R2
Au    7.300000    0.842931    16.689190    R2
Au    16.059999    0.842931    16.689190    R2
Au    11.680000    8.429314    16.689190    R2
Au    20.440001    8.429314    16.689190    R2
Au    2.920000    3.371726    16.689190    R2
Au    11.680000    3.371726    16.689190    R2
Au    7.300000    10.958108    16.689190    R2
Au    16.059999    10.958108    16.689190    R2
Au    5.840000    3.371726    16.689190    R2
Au    14.600000    3.371726    16.689190    R2
Au    10.220000    10.958108    16.689190    R2
Au    18.980000    10.958108    16.689190    R2
Au    8.760000    3.371726    16.689190    R2
Au    17.520000    3.371726    16.689190    R2
Au    13.140000    10.958108    16.689190    R2
Au    21.900000    10.958108    16.689190    R2
Au    4.380000    5.900520    16.689190    R2
Au    13.140000    5.900520    16.689190    R2
Au    7.300000    5.900520    16.689190    R2
Au    16.059999    5.900520    16.689190    R2
Au    10.220000    5.900520    16.689190    R2
Au    18.980000    5.900520    16.689190    R2
Au    0.000000    1.685863    19.073360    R2
Au    8.760000    1.685863    19.073360    R2
Au    4.380000    9.272245    19.073360    R2
Au    13.140000    9.272245    19.073360    R2
Au    2.920000    1.685863    19.073360    R2
Au    11.680000    1.685863    19.073360    R2
Au    7.300000    9.272245    19.073360    R2
Au    16.059999    9.272245    19.073360    R2
Au    5.840000    1.685863    19.073360    R2
Au    14.600000    1.685863    19.073360    R2
Au    10.220000    9.272245    19.073360    R2
Au    18.980000    9.272245    19.073360    R2
Au    1.460000    4.214657    19.073360    R2
Au    10.220000    4.214657    19.073360    R2
Au    5.840000    11.801040    19.073360    R2
Au    14.600000    11.801040    19.073360    R2
Au    4.380000    4.214657    19.073360    R2
Au    13.140000    4.214657    19.073360    R2
Au    8.760000    11.801040    19.073360    R2
Au    17.520000    11.801040    19.073360    R2
Au    7.300000    4.214657    19.073360    R2
Au    16.059999    4.214657    19.073360    R2
Au    11.680000    11.801040    19.073360    R2
Au    20.440001    11.801040    19.073360    R2
Au    2.920000    6.743451    19.073360    R2
Au    11.680000    6.743451    19.073360    R2
Au    5.840000    6.743451    19.073360    R2
Au    14.600000    6.743451    19.073360    R2
Au    8.760000    6.743451    19.073360    R2
Au    17.520000    6.743451    19.073360    R2
Au    0.000000    0.000000    21.457529    R3
Au    8.760000    0.000000    21.457529    R3
Au    4.380000    7.586382    21.457529    R3
Au    13.140000    7.586382    21.457529    R3
Au    2.920000    0.000000    21.457529    R3
Au    11.680000    0.000000    21.457529    R3
Au    7.300000    7.586382    21.457529    R3
Au    16.059999    7.586382    21.457529    R3
Au    5.840000    0.000000    21.457529    R3
Au    14.600000    0.000000    21.457529    R3
Au    10.220000    7.586382    21.457529    R3
Au    18.980000    7.586382    21.457529    R3
Au    1.460000    2.528794    21.457529    R3
Au    10.220000    2.528794    21.457529    R3
Au    5.840000    10.115176    21.457529    R3
Au    14.600000    10.115176    21.457529    R3
Au    4.380000    2.528794    21.457529    R3
Au    13.140000    2.528794    21.457529    R3
Au    8.760000    10.115176    21.457529    R3
Au    17.520000    10.115176    21.457529    R3
Au    7.300000    2.528794    21.457529    R3
Au    16.059999    2.528794    21.457529    R3
Au    11.680000    10.115176    21.457529    R3
Au    20.440001    10.115176    21.457529    R3
Au    2.920000    5.057588    21.457529    R3
Au    11.680000    5.057588    21.457529    R3
Au    5.840000    5.057588    21.457529    R3
Au    14.600000    5.057588    21.457529    R3
Au    8.760000    5.057588    21.457529    R3
Au    17.520000    5.057588    21.457529    R3
Au    1.460000    0.842931    23.841700    R3
Au    10.220000    0.842931    23.841700    R3
Au    5.840000    8.429314    23.841700    R3
Au    14.600000    8.429314    23.841700    R3
Au    4.380000    0.842931    23.841700    R3
Au    13.140000    0.842931    23.841700    R3
Au    8.760000    8.429314    23.841700    R3
Au    17.520000    8.429314    23.841700    R3
Au    7.300000    0.842931    23.841700    R3
Au    16.059999    0.842931    23.841700    R3
Au    11.680000    8.429314    23.841700    R3
Au    20.440001    8.429314    23.841700    R3
Au    2.920000    3.371726    23.841700    R3
Au    11.680000    3.371726    23.841700    R3
Au    7.300000    10.958108    23.841700    R3
Au    16.059999    10.958108    23.841700    R3
Au    5.840000    3.371726    23.841700    R3
Au    14.600000    3.371726    23.841700    R3
Au    10.220000    10.958108    23.841700    R3
Au    18.980000    10.958108    23.841700    R3
Au    8.760000    3.371726    23.841700    R3
Au    17.520000    3.371726    23.841700    R3
Au    13.140000    10.958108    23.841700    R3
Au    21.900000    10.958108    23.841700    R3
Au    4.380000    5.900520    23.841700    R3
Au    13.140000    5.900520    23.841700    R3
Au    7.300000    5.900520    23.841700    R3
Au    16.059999    5.900520    23.841700    R3
Au    10.220000    5.900520    23.841700    R3
Au    18.980000    5.900520    23.841700    R3
Au    0.000000    1.685863    26.225870    R3
Au    8.760000    1.685863    26.225870    R3
Au    4.380000    9.272245    26.225870    R3
Au    13.140000    9.272245    26.225870    R3
Au    2.920000    1.685863    26.225870    R3
Au    11.680000    1.685863    26.225870    R3
Au    7.300000    9.272245    26.225870    R3
Au    16.059999    9.272245    26.225870    R3
Au    5.840000    1.685863    26.225870    R3
Au    14.600000    1.685863    26.225870    R3
Au    10.220000    9.272245    26.225870    R3
Au    18.980000    9.272245    26.225870    R3
Au    1.460000    4.214657    26.225870    R3
Au    10.220000    4.214657    26.225870    R3
Au    5.840000    11.801040    26.225870    R3
Au    14.600000    11.801040    26.225870    R3
Au    4.380000    4.214657    26.225870    R3
Au    13.140000    4.214657    26.225870    R3
Au    8.760000    11.801040    26.225870    R3
Au    17.520000    11.801040    26.225870    R3
Au    7.300000    4.214657    26.225870    R3
Au    16.059999    4.214657    26.225870    R3
Au    11.680000    11.801040    26.225870    R3
Au    20.440001    11.801040    26.225870    R3
Au    2.920000    6.743451    26.225870    R3
Au    11.680000    6.743451    26.225870    R3
Au    5.840000    6.743451    26.225870    R3
Au    14.600000    6.743451    26.225870    R3
Au    8.760000    6.743451    26.225870    R3
Au    17.520000    6.743451    26.225870    R3
