892
 i =       72, E =     -6434.2718402668
Au    0.000000    0.000000    0.000000
Au    8.760000    0.000000    0.000000
Au    4.380000    7.586382    0.000000
Au   13.140000    7.586382    0.000000
Au    2.920000    0.000000    0.000000
Au   11.680000    0.000000    0.000000
Au    7.300000    7.586382    0.000000
Au   16.059999    7.586382    0.000000
Au    5.840000    0.000000    0.000000
Au   14.600000    0.000000    0.000000
Au   10.220000    7.586382    0.000000
Au   18.980000    7.586382    0.000000
Au    1.460000    2.528794    0.000000
Au   10.220000    2.528794    0.000000
Au    5.840000   10.115176    0.000000
Au   14.600000   10.115176    0.000000
Au    4.380000    2.528794    0.000000
Au   13.140000    2.528794    0.000000
Au    8.760000   10.115176    0.000000
Au   17.520000   10.115176    0.000000
Au    7.300000    2.528794    0.000000
Au   16.059999    2.528794    0.000000
Au   11.680000   10.115176    0.000000
Au   20.440001   10.115176    0.000000
Au    2.920000    5.057588    0.000000
Au   11.680000    5.057588    0.000000
Au    5.840000    5.057588    0.000000
Au   14.600000    5.057588    0.000000
Au    8.760000    5.057588    0.000000
Au   17.520000    5.057588    0.000000
Au    1.460000    0.842931    2.384170
Au   10.220000    0.842931    2.384170
Au    5.840000    8.429314    2.384170
Au   14.600000    8.429314    2.384170
Au    4.380000    0.842931    2.384170
Au   13.140000    0.842931    2.384170
Au    8.760000    8.429314    2.384170
Au   17.520000    8.429314    2.384170
Au    7.300000    0.842931    2.384170
Au   16.059999    0.842931    2.384170
Au   11.680000    8.429314    2.384170
Au   20.440001    8.429314    2.384170
Au    2.920000    3.371726    2.384170
Au   11.680000    3.371726    2.384170
Au    7.300000   10.958108    2.384170
Au   16.059999   10.958108    2.384170
Au    5.840000    3.371726    2.384170
Au   14.600000    3.371726    2.384170
Au   10.220000   10.958108    2.384170
Au   18.980000   10.958108    2.384170
Au    8.760000    3.371726    2.384170
Au   17.520000    3.371726    2.384170
Au   13.140000   10.958108    2.384170
Au   21.900000   10.958108    2.384170
Au    4.380000    5.900520    2.384170
Au   13.140000    5.900520    2.384170
Au    7.300000    5.900520    2.384170
Au   16.059999    5.900520    2.384170
Au   10.220000    5.900520    2.384170
Au   18.980000    5.900520    2.384170
Au    0.000000    1.685863    4.768340
Au    8.760000    1.685863    4.768340
Au    4.380000    9.272245    4.768340
Au   13.140000    9.272245    4.768340
Au    2.920000    1.685863    4.768340
Au   11.680000    1.685863    4.768340
Au    7.300000    9.272245    4.768340
Au   16.059999    9.272245    4.768340
Au    5.840000    1.685863    4.768340
Au   14.600000    1.685863    4.768340
Au   10.220000    9.272245    4.768340
Au   18.980000    9.272245    4.768340
Au    1.460000    4.214657    4.768340
Au   10.220000    4.214657    4.768340
Au    5.840000   11.801040    4.768340
Au   14.600000   11.801040    4.768340
Au    4.380000    4.214657    4.768340
Au   13.140000    4.214657    4.768340
Au    8.760000   11.801040    4.768340
Au   17.520000   11.801040    4.768340
Au    7.300000    4.214657    4.768340
Au   16.059999    4.214657    4.768340
Au   11.680000   11.801040    4.768340
Au   20.440001   11.801040    4.768340
Au    2.920000    6.743451    4.768340
Au   11.680000    6.743451    4.768340
Au    5.840000    6.743451    4.768340
Au   14.600000    6.743451    4.768340
Au    8.760000    6.743451    4.768340
Au   17.520000    6.743451    4.768340
Au    0.000000    0.000000    7.152510
Au    8.760000    0.000000    7.152510
Au    4.380000    7.586382    7.152510
Au   13.140000    7.586382    7.152510
Au    2.920000    0.000000    7.152510
Au   11.680000    0.000000    7.152510
Au    7.300000    7.586382    7.152510
Au   16.059999    7.586382    7.152510
Au    5.840000    0.000000    7.152510
Au   14.600000    0.000000    7.152510
Au   10.220000    7.586382    7.152510
Au   18.980000    7.586382    7.152510
Au    1.460000    2.528794    7.152510
Au   10.220000    2.528794    7.152510
Au    5.840000   10.115176    7.152510
Au   14.600000   10.115176    7.152510
Au    4.380000    2.528794    7.152510
Au   13.140000    2.528794    7.152510
Au    8.760000   10.115176    7.152510
Au   17.520000   10.115176    7.152510
Au    7.300000    2.528794    7.152510
Au   16.059999    2.528794    7.152510
Au   11.680000   10.115176    7.152510
Au   20.440001   10.115176    7.152510
Au    2.920000    5.057588    7.152510
Au   11.680000    5.057588    7.152510
Au    5.840000    5.057588    7.152510
Au   14.600000    5.057588    7.152510
Au    8.760000    5.057588    7.152510
Au   17.520000    5.057588    7.152510
Au    1.460000    0.842931    9.536680
Au   10.220000    0.842931    9.536680
Au    5.840000    8.429314    9.536680
Au   14.600000    8.429314    9.536680
Au    4.380000    0.842931    9.536680
Au   13.140000    0.842931    9.536680
Au    8.760000    8.429314    9.536680
Au   17.520000    8.429314    9.536680
Au    7.300000    0.842931    9.536680
Au   16.059999    0.842931    9.536680
Au   11.680000    8.429314    9.536680
Au   20.440001    8.429314    9.536680
Au    2.920000    3.371726    9.536680
Au   11.680000    3.371726    9.536680
Au    7.300000   10.958108    9.536680
Au   16.059999   10.958108    9.536680
Au    5.840000    3.371726    9.536680
Au   14.600000    3.371726    9.536680
Au   10.220000   10.958108    9.536680
Au   18.980000   10.958108    9.536680
Au    8.760000    3.371726    9.536680
Au   17.520000    3.371726    9.536680
Au   13.140000   10.958108    9.536680
Au   21.900000   10.958108    9.536680
Au    4.380000    5.900520    9.536680
Au   13.140000    5.900520    9.536680
Au    7.300000    5.900520    9.536680
Au   16.059999    5.900520    9.536680
Au   10.220000    5.900520    9.536680
Au   18.980000    5.900520    9.536680
Au    0.000000    1.685863   11.920850
Au    8.760000    1.685863   11.920850
Au    4.380000    9.272245   11.920850
Au   13.140000    9.272245   11.920850
Au    2.920000    1.685863   11.920850
Au   11.680000    1.685863   11.920850
Au    7.300000    9.272245   11.920850
Au   16.059999    9.272245   11.920850
Au    5.840000    1.685863   11.920850
Au   14.600000    1.685863   11.920850
Au   10.220000    9.272245   11.920850
Au   18.980000    9.272245   11.920850
Au    1.460000    4.214657   11.920850
Au   10.220000    4.214657   11.920850
Au    5.840000   11.801040   11.920850
Au   14.600000   11.801040   11.920850
Au    4.380000    4.214657   11.920850
Au   13.140000    4.214657   11.920850
Au    8.760000   11.801040   11.920850
Au   17.520000   11.801040   11.920850
Au    7.300000    4.214657   11.920850
Au   16.059999    4.214657   11.920850
Au   11.680000   11.801040   11.920850
Au   20.440001   11.801040   11.920850
Au    2.920000    6.743451   11.920850
Au   11.680000    6.743451   11.920850
Au    5.840000    6.743451   11.920850
Au   14.600000    6.743451   11.920850
Au    8.760000    6.743451   11.920850
Au   17.520000    6.743451   11.920850
Au    0.000000    0.000000   14.305019
Au    8.760000    0.000000   14.305019
Au    4.380000    7.586382   14.305019
Au   13.140000    7.586382   14.305019
Au    2.920000    0.000000   14.305019
Au   11.680000    0.000000   14.305019
Au    7.300000    7.586382   14.305019
Au   16.059999    7.586382   14.305019
Au    5.840000    0.000000   14.305019
Au   14.600000    0.000000   14.305019
Au   10.220000    7.586382   14.305019
Au   18.980000    7.586382   14.305019
Au    1.460000    2.528794   14.305019
Au   10.220000    2.528794   14.305019
Au    5.840000   10.115176   14.305019
Au   14.600000   10.115176   14.305019
Au    4.380000    2.528794   14.305019
Au   13.140000    2.528794   14.305019
Au    8.760000   10.115176   14.305019
Au   17.520000   10.115176   14.305019
Au    7.300000    2.528794   14.305019
Au   16.059999    2.528794   14.305019
Au   11.680000   10.115176   14.305019
Au   20.440001   10.115176   14.305019
Au    2.920000    5.057588   14.305019
Au   11.680000    5.057588   14.305019
Au    5.840000    5.057588   14.305019
Au   14.600000    5.057588   14.305019
Au    8.760000    5.057588   14.305019
Au   17.520000    5.057588   14.305019
Au    1.460000    0.842931   16.689190
Au   10.220000    0.842931   16.689190
Au    5.840000    8.429314   16.689190
Au   14.600000    8.429314   16.689190
Au    4.380000    0.842931   16.689190
Au   13.140000    0.842931   16.689190
Au    8.760000    8.429314   16.689190
Au   17.520000    8.429314   16.689190
Au    7.300000    0.842931   16.689190
Au   16.059999    0.842931   16.689190
Au   11.680000    8.429314   16.689190
Au   20.440001    8.429314   16.689190
Au    2.920000    3.371726   16.689190
Au   11.680000    3.371726   16.689190
Au    7.300000   10.958108   16.689190
Au   16.059999   10.958108   16.689190
Au    5.840000    3.371726   16.689190
Au   14.600000    3.371726   16.689190
Au   10.220000   10.958108   16.689190
Au   18.980000   10.958108   16.689190
Au    8.760000    3.371726   16.689190
Au   17.520000    3.371726   16.689190
Au   13.140000   10.958108   16.689190
Au   21.900000   10.958108   16.689190
Au    4.380000    5.900520   16.689190
Au   13.140000    5.900520   16.689190
Au    7.300000    5.900520   16.689190
Au   16.059999    5.900520   16.689190
Au   10.220000    5.900520   16.689190
Au   18.980000    5.900520   16.689190
Au    0.000000    1.685863   19.073360
Au    8.760000    1.685863   19.073360
Au    4.380000    9.272245   19.073360
Au   13.140000    9.272245   19.073360
Au    2.920000    1.685863   19.073360
Au   11.680000    1.685863   19.073360
Au    7.300000    9.272245   19.073360
Au   16.059999    9.272245   19.073360
Au    5.840000    1.685863   19.073360
Au   14.600000    1.685863   19.073360
Au   10.220000    9.272245   19.073360
Au   18.980000    9.272245   19.073360
Au    1.460000    4.214657   19.073360
Au   10.220000    4.214657   19.073360
Au    5.840000   11.801040   19.073360
Au   14.600000   11.801040   19.073360
Au    4.380000    4.214657   19.073360
Au   13.140000    4.214657   19.073360
Au    8.760000   11.801040   19.073360
Au   17.520000   11.801040   19.073360
Au    7.300000    4.214657   19.073360
Au   16.059999    4.214657   19.073360
Au   11.680000   11.801040   19.073360
Au   20.440001   11.801040   19.073360
Au    2.920000    6.743451   19.073360
Au   11.680000    6.743451   19.073360
Au    5.840000    6.743451   19.073360
Au   14.600000    6.743451   19.073360
Au    8.760000    6.743451   19.073360
Au   17.520000    6.743451   19.073360
Au    0.000000    0.000000   21.457529
Au    8.760000    0.000000   21.457529
Au    4.380000    7.586382   21.457529
Au   13.140000    7.586382   21.457529
Au    2.920000    0.000000   21.457529
Au   11.680000    0.000000   21.457529
Au    7.300000    7.586382   21.457529
Au   16.059999    7.586382   21.457529
Au    5.840000    0.000000   21.457529
Au   14.600000    0.000000   21.457529
Au   10.220000    7.586382   21.457529
Au   18.980000    7.586382   21.457529
Au    1.460000    2.528794   21.457529
Au   10.220000    2.528794   21.457529
Au    5.840000   10.115176   21.457529
Au   14.600000   10.115176   21.457529
Au    4.380000    2.528794   21.457529
Au   13.140000    2.528794   21.457529
Au    8.760000   10.115176   21.457529
Au   17.520000   10.115176   21.457529
Au    7.300000    2.528794   21.457529
Au   16.059999    2.528794   21.457529
Au   11.680000   10.115176   21.457529
Au   20.440001   10.115176   21.457529
Au    2.920000    5.057588   21.457529
Au   11.680000    5.057588   21.457529
Au    5.840000    5.057588   21.457529
Au   14.600000    5.057588   21.457529
Au    8.760000    5.057588   21.457529
Au   17.520000    5.057588   21.457529
Au    1.460000    0.842931   23.841700
Au   10.220000    0.842931   23.841700
Au    5.840000    8.429314   23.841700
Au   14.600000    8.429314   23.841700
Au    4.380000    0.842931   23.841700
Au   13.140000    0.842931   23.841700
Au    8.760000    8.429314   23.841700
Au   17.520000    8.429314   23.841700
Au    7.300000    0.842931   23.841700
Au   16.059999    0.842931   23.841700
Au   11.680000    8.429314   23.841700
Au   20.440001    8.429314   23.841700
Au    2.920000    3.371726   23.841700
Au   11.680000    3.371726   23.841700
Au    7.300000   10.958108   23.841700
Au   16.059999   10.958108   23.841700
Au    5.840000    3.371726   23.841700
Au   14.600000    3.371726   23.841700
Au   10.220000   10.958108   23.841700
Au   18.980000   10.958108   23.841700
Au    8.760000    3.371726   23.841700
Au   17.520000    3.371726   23.841700
Au   13.140000   10.958108   23.841700
Au   21.900000   10.958108   23.841700
Au    4.380000    5.900520   23.841700
Au   13.140000    5.900520   23.841700
Au    7.300000    5.900520   23.841700
Au   16.059999    5.900520   23.841700
Au   10.220000    5.900520   23.841700
Au   18.980000    5.900520   23.841700
Au    0.000000    1.685863   26.225870
Au    8.760000    1.685863   26.225870
Au    4.380000    9.272245   26.225870
Au   13.140000    9.272245   26.225870
Au    2.920000    1.685863   26.225870
Au   11.680000    1.685863   26.225870
Au    7.300000    9.272245   26.225870
Au   16.059999    9.272245   26.225870
Au    5.840000    1.685863   26.225870
Au   14.600000    1.685863   26.225870
Au   10.220000    9.272245   26.225870
Au   18.980000    9.272245   26.225870
Au    1.460000    4.214657   26.225870
Au   10.220000    4.214657   26.225870
Au    5.840000   11.801040   26.225870
Au   14.600000   11.801040   26.225870
Au    4.380000    4.214657   26.225870
Au   13.140000    4.214657   26.225870
Au    8.760000   11.801040   26.225870
Au   17.520000   11.801040   26.225870
Au    7.300000    4.214657   26.225870
Au   16.059999    4.214657   26.225870
Au   11.680000   11.801040   26.225870
Au   20.440001   11.801040   26.225870
Au    2.920000    6.743451   26.225870
Au   11.680000    6.743451   26.225870
Au    5.840000    6.743451   26.225870
Au   14.600000    6.743451   26.225870
Au    8.760000    6.743451   26.225870
Au   17.520000    6.743451   26.225870
 H   11.333586    4.953299   32.665787
 C   10.988189    5.656462   31.905275
 C   10.993761    7.031094   32.177959
 C   10.555506    7.914085   31.176628
 H   10.558979    8.987304   31.372486
 C   10.077853    7.439012   29.957439
 H    9.712569    8.133361   29.199619
 C   10.028294    6.054728   29.715860
 C   10.520771    5.165561   30.687204
 H   10.497353    4.091911   30.500668
 C    8.142063    8.925686   42.164391
 C    7.756328    7.679840   42.798847
 C    8.961191    7.011755   43.253178
 C   10.100408    7.845970   42.897835
 C    9.591701    9.026505   42.220158
 C   10.296868    9.568915   41.141357
 C   11.541218    8.966109   40.701260
 C   12.033889    7.830607   41.357807
 C   11.293493    7.258364   42.470417
 C   11.398620    5.810040   42.378304
 C   10.305299    5.006788   42.715313
 C    9.062945    5.616894   43.161572
 C    7.962783    4.841626   42.622200
 C    6.797259    5.484826   42.189552
 C    6.691357    6.927978   42.276291
 C    5.977154    7.399549   41.105385
 C    5.643358    6.242910   40.288925
 C    6.144413    5.056293   40.961784
 C    6.679596    4.004823   40.213882
 C    7.891292    3.336450   40.663330
 C    8.520347    3.748609   41.841820
 C    9.968377    3.853608   41.897648
 C   10.734089    3.551419   40.767239
 C   11.867319    4.389419   40.414017
 C   12.200039    5.494994   41.208725
 C   12.591368    6.741498   40.579624
 C   12.633567    6.834507   39.182789
 C   12.120808    8.011230   38.504364
 C   11.598830    9.059652   39.253979
 C   10.367867    9.711034   38.793785
 C    9.760041    9.315823   37.611378
 C   10.432214    8.412238   36.574245
 C   11.489141    7.595627   37.257790
 C   11.559824    6.199798   37.192162
 C   12.280630    5.696349   38.368519
 C   11.909619    4.498874   38.970577
 C   10.798197    3.715183   38.427174
 C   10.080310    3.129250   39.540333
 C    8.684116    3.015800   39.489571
 C    7.966599    3.480486   38.317932
 C    6.728728    4.089888   38.763248
 C    6.251097    5.236615   38.114410
 C    5.702486    6.330280   38.894863
 C    6.105505    7.576633   38.265926
 C    6.899233    7.265814   37.098427
 C    6.982410    5.804838   36.997147
 C    8.176463    5.230081   36.575813
 C    8.671906    4.041135   37.245285
 C   10.108750    4.164545   37.306210
 C   10.472093    5.432550   36.660301
 C    9.312321    6.060778   36.194115
 C    9.194326    7.539723   35.970325
 C    7.979340    8.059459   36.742580
 C    8.332651    9.176061   37.570435
 C    7.545087    9.511261   38.697037
 C    6.408828    8.694652   39.050240
 C    6.346803    8.603672   40.497047
 C    7.450665    9.381719   41.036854
 C    8.182174    9.944331   39.917446
 C    9.578081   10.024137   39.963757
 S    9.131084    5.350288   28.356297
Au    8.776846    6.755604   47.360458
Au    0.000000    0.000000   49.669491
Au    8.760000    0.000000   49.669491
Au    4.380000    7.586382   49.669491
Au   13.140000    7.586382   49.669491
Au    2.920000    0.000000   49.669491
Au   11.680000    0.000000   49.669491
Au    7.300000    7.586382   49.669491
Au   16.059999    7.586382   49.669491
Au    5.840000    0.000000   49.669491
Au   14.600000    0.000000   49.669491
Au   10.220000    7.586382   49.669491
Au   18.980000    7.586382   49.669491
Au    1.460000    2.528794   49.669491
Au   10.220000    2.528794   49.669491
Au    5.840000   10.115176   49.669491
Au   14.600000   10.115176   49.669491
Au    4.380000    2.528794   49.669491
Au   13.140000    2.528794   49.669491
Au    8.760000   10.115176   49.669491
Au   17.520000   10.115176   49.669491
Au    7.300000    2.528794   49.669491
Au   16.059999    2.528794   49.669491
Au   11.680000   10.115176   49.669491
Au   20.440001   10.115176   49.669491
Au    2.920000    5.057588   49.669491
Au   11.680000    5.057588   49.669491
Au    5.840000    5.057588   49.669491
Au   14.600000    5.057588   49.669491
Au    8.760000    5.057588   49.669491
Au   17.520000    5.057588   49.669491
Au    1.460000    0.842931   52.053661
Au   10.220000    0.842931   52.053661
Au    5.840000    8.429314   52.053661
Au   14.600000    8.429314   52.053661
Au    4.380000    0.842931   52.053661
Au   13.140000    0.842931   52.053661
Au    8.760000    8.429314   52.053661
Au   17.520000    8.429314   52.053661
Au    7.300000    0.842931   52.053661
Au   16.059999    0.842931   52.053661
Au   11.680000    8.429314   52.053661
Au   20.440001    8.429314   52.053661
Au    2.920000    3.371726   52.053661
Au   11.680000    3.371726   52.053661
Au    7.300000   10.958108   52.053661
Au   16.059999   10.958108   52.053661
Au    5.840000    3.371726   52.053661
Au   14.600000    3.371726   52.053661
Au   10.220000   10.958108   52.053661
Au   18.980000   10.958108   52.053661
Au    8.760000    3.371726   52.053661
Au   17.520000    3.371726   52.053661
Au   13.140000   10.958108   52.053661
Au   21.900000   10.958108   52.053661
Au    4.380000    5.900520   52.053661
Au   13.140000    5.900520   52.053661
Au    7.300000    5.900520   52.053661
Au   16.059999    5.900520   52.053661
Au   10.220000    5.900520   52.053661
Au   18.980000    5.900520   52.053661
Au    0.000000    1.685863   54.437832
Au    8.760000    1.685863   54.437832
Au    4.380000    9.272245   54.437832
Au   13.140000    9.272245   54.437832
Au    2.920000    1.685863   54.437832
Au   11.680000    1.685863   54.437832
Au    7.300000    9.272245   54.437832
Au   16.059999    9.272245   54.437832
Au    5.840000    1.685863   54.437832
Au   14.600000    1.685863   54.437832
Au   10.220000    9.272245   54.437832
Au   18.980000    9.272245   54.437832
Au    1.460000    4.214657   54.437832
Au   10.220000    4.214657   54.437832
Au    5.840000   11.801040   54.437832
Au   14.600000   11.801040   54.437832
Au    4.380000    4.214657   54.437832
Au   13.140000    4.214657   54.437832
Au    8.760000   11.801040   54.437832
Au   17.520000   11.801040   54.437832
Au    7.300000    4.214657   54.437832
Au   16.059999    4.214657   54.437832
Au   11.680000   11.801040   54.437832
Au   20.440001   11.801040   54.437832
Au    2.920000    6.743451   54.437832
Au   11.680000    6.743451   54.437832
Au    5.840000    6.743451   54.437832
Au   14.600000    6.743451   54.437832
Au    8.760000    6.743451   54.437832
Au   17.520000    6.743451   54.437832
Au    0.000000    0.000000   56.821991
Au    8.760000    0.000000   56.821991
Au    4.380000    7.586382   56.821991
Au   13.140000    7.586382   56.821991
Au    2.920000    0.000000   56.821991
Au   11.680000    0.000000   56.821991
Au    7.300000    7.586382   56.821991
Au   16.059999    7.586382   56.821991
Au    5.840000    0.000000   56.821991
Au   14.600000    0.000000   56.821991
Au   10.220000    7.586382   56.821991
Au   18.980000    7.586382   56.821991
Au    1.460000    2.528794   56.821991
Au   10.220000    2.528794   56.821991
Au    5.840000   10.115176   56.821991
Au   14.600000   10.115176   56.821991
Au    4.380000    2.528794   56.821991
Au   13.140000    2.528794   56.821991
Au    8.760000   10.115176   56.821991
Au   17.520000   10.115176   56.821991
Au    7.300000    2.528794   56.821991
Au   16.059999    2.528794   56.821991
Au   11.680000   10.115176   56.821991
Au   20.440001   10.115176   56.821991
Au    2.920000    5.057588   56.821991
Au   11.680000    5.057588   56.821991
Au    5.840000    5.057588   56.821991
Au   14.600000    5.057588   56.821991
Au    8.760000    5.057588   56.821991
Au   17.520000    5.057588   56.821991
Au    1.460000    0.842931   59.206161
Au   10.220000    0.842931   59.206161
Au    5.840000    8.429314   59.206161
Au   14.600000    8.429314   59.206161
Au    4.380000    0.842931   59.206161
Au   13.140000    0.842931   59.206161
Au    8.760000    8.429314   59.206161
Au   17.520000    8.429314   59.206161
Au    7.300000    0.842931   59.206161
Au   16.059999    0.842931   59.206161
Au   11.680000    8.429314   59.206161
Au   20.440001    8.429314   59.206161
Au    2.920000    3.371726   59.206161
Au   11.680000    3.371726   59.206161
Au    7.300000   10.958108   59.206161
Au   16.059999   10.958108   59.206161
Au    5.840000    3.371726   59.206161
Au   14.600000    3.371726   59.206161
Au   10.220000   10.958108   59.206161
Au   18.980000   10.958108   59.206161
Au    8.760000    3.371726   59.206161
Au   17.520000    3.371726   59.206161
Au   13.140000   10.958108   59.206161
Au   21.900000   10.958108   59.206161
Au    4.380000    5.900520   59.206161
Au   13.140000    5.900520   59.206161
Au    7.300000    5.900520   59.206161
Au   16.059999    5.900520   59.206161
Au   10.220000    5.900520   59.206161
Au   18.980000    5.900520   59.206161
Au    0.000000    1.685863   61.590332
Au    8.760000    1.685863   61.590332
Au    4.380000    9.272245   61.590332
Au   13.140000    9.272245   61.590332
Au    2.920000    1.685863   61.590332
Au   11.680000    1.685863   61.590332
Au    7.300000    9.272245   61.590332
Au   16.059999    9.272245   61.590332
Au    5.840000    1.685863   61.590332
Au   14.600000    1.685863   61.590332
Au   10.220000    9.272245   61.590332
Au   18.980000    9.272245   61.590332
Au    1.460000    4.214657   61.590332
Au   10.220000    4.214657   61.590332
Au    5.840000   11.801040   61.590332
Au   14.600000   11.801040   61.590332
Au    4.380000    4.214657   61.590332
Au   13.140000    4.214657   61.590332
Au    8.760000   11.801040   61.590332
Au   17.520000   11.801040   61.590332
Au    7.300000    4.214657   61.590332
Au   16.059999    4.214657   61.590332
Au   11.680000   11.801040   61.590332
Au   20.440001   11.801040   61.590332
Au    2.920000    6.743451   61.590332
Au   11.680000    6.743451   61.590332
Au    5.840000    6.743451   61.590332
Au   14.600000    6.743451   61.590332
Au    8.760000    6.743451   61.590332
Au   17.520000    6.743451   61.590332
Au    0.000000    0.000000   63.974503
Au    8.760000    0.000000   63.974503
Au    4.380000    7.586382   63.974503
Au   13.140000    7.586382   63.974503
Au    2.920000    0.000000   63.974503
Au   11.680000    0.000000   63.974503
Au    7.300000    7.586382   63.974503
Au   16.059999    7.586382   63.974503
Au    5.840000    0.000000   63.974503
Au   14.600000    0.000000   63.974503
Au   10.220000    7.586382   63.974503
Au   18.980000    7.586382   63.974503
Au    1.460000    2.528794   63.974503
Au   10.220000    2.528794   63.974503
Au    5.840000   10.115176   63.974503
Au   14.600000   10.115176   63.974503
Au    4.380000    2.528794   63.974503
Au   13.140000    2.528794   63.974503
Au    8.760000   10.115176   63.974503
Au   17.520000   10.115176   63.974503
Au    7.300000    2.528794   63.974503
Au   16.059999    2.528794   63.974503
Au   11.680000   10.115176   63.974503
Au   20.440001   10.115176   63.974503
Au    2.920000    5.057588   63.974503
Au   11.680000    5.057588   63.974503
Au    5.840000    5.057588   63.974503
Au   14.600000    5.057588   63.974503
Au    8.760000    5.057588   63.974503
Au   17.520000    5.057588   63.974503
Au    1.460000    0.842931   66.358673
Au   10.220000    0.842931   66.358673
Au    5.840000    8.429314   66.358673
Au   14.600000    8.429314   66.358673
Au    4.380000    0.842931   66.358673
Au   13.140000    0.842931   66.358673
Au    8.760000    8.429314   66.358673
Au   17.520000    8.429314   66.358673
Au    7.300000    0.842931   66.358673
Au   16.059999    0.842931   66.358673
Au   11.680000    8.429314   66.358673
Au   20.440001    8.429314   66.358673
Au    2.920000    3.371726   66.358673
Au   11.680000    3.371726   66.358673
Au    7.300000   10.958108   66.358673
Au   16.059999   10.958108   66.358673
Au    5.840000    3.371726   66.358673
Au   14.600000    3.371726   66.358673
Au   10.220000   10.958108   66.358673
Au   18.980000   10.958108   66.358673
Au    8.760000    3.371726   66.358673
Au   17.520000    3.371726   66.358673
Au   13.140000   10.958108   66.358673
Au   21.900000   10.958108   66.358673
Au    4.380000    5.900520   66.358673
Au   13.140000    5.900520   66.358673
Au    7.300000    5.900520   66.358673
Au   16.059999    5.900520   66.358673
Au   10.220000    5.900520   66.358673
Au   18.980000    5.900520   66.358673
Au    0.000000    1.685863   68.742844
Au    8.760000    1.685863   68.742844
Au    4.380000    9.272245   68.742844
Au   13.140000    9.272245   68.742844
Au    2.920000    1.685863   68.742844
Au   11.680000    1.685863   68.742844
Au    7.300000    9.272245   68.742844
Au   16.059999    9.272245   68.742844
Au    5.840000    1.685863   68.742844
Au   14.600000    1.685863   68.742844
Au   10.220000    9.272245   68.742844
Au   18.980000    9.272245   68.742844
Au    1.460000    4.214657   68.742844
Au   10.220000    4.214657   68.742844
Au    5.840000   11.801040   68.742844
Au   14.600000   11.801040   68.742844
Au    4.380000    4.214657   68.742844
Au   13.140000    4.214657   68.742844
Au    8.760000   11.801040   68.742844
Au   17.520000   11.801040   68.742844
Au    7.300000    4.214657   68.742844
Au   16.059999    4.214657   68.742844
Au   11.680000   11.801040   68.742844
Au   20.440001   11.801040   68.742844
Au    2.920000    6.743451   68.742844
Au   11.680000    6.743451   68.742844
Au    5.840000    6.743451   68.742844
Au   14.600000    6.743451   68.742844
Au    8.760000    6.743451   68.742844
Au   17.520000    6.743451   68.742844
Au    0.000000    0.000000   71.127014
Au    8.760000    0.000000   71.127014
Au    4.380000    7.586382   71.127014
Au   13.140000    7.586382   71.127014
Au    2.920000    0.000000   71.127014
Au   11.680000    0.000000   71.127014
Au    7.300000    7.586382   71.127014
Au   16.059999    7.586382   71.127014
Au    5.840000    0.000000   71.127014
Au   14.600000    0.000000   71.127014
Au   10.220000    7.586382   71.127014
Au   18.980000    7.586382   71.127014
Au    1.460000    2.528794   71.127014
Au   10.220000    2.528794   71.127014
Au    5.840000   10.115176   71.127014
Au   14.600000   10.115176   71.127014
Au    4.380000    2.528794   71.127014
Au   13.140000    2.528794   71.127014
Au    8.760000   10.115176   71.127014
Au   17.520000   10.115176   71.127014
Au    7.300000    2.528794   71.127014
Au   16.059999    2.528794   71.127014
Au   11.680000   10.115176   71.127014
Au   20.440001   10.115176   71.127014
Au    2.920000    5.057588   71.127014
Au   11.680000    5.057588   71.127014
Au    5.840000    5.057588   71.127014
Au   14.600000    5.057588   71.127014
Au    8.760000    5.057588   71.127014
Au   17.520000    5.057588   71.127014
Au    1.460000    0.842931   73.511185
Au   10.220000    0.842931   73.511185
Au    5.840000    8.429314   73.511185
Au   14.600000    8.429314   73.511185
Au    4.380000    0.842931   73.511185
Au   13.140000    0.842931   73.511185
Au    8.760000    8.429314   73.511185
Au   17.520000    8.429314   73.511185
Au    7.300000    0.842931   73.511185
Au   16.059999    0.842931   73.511185
Au   11.680000    8.429314   73.511185
Au   20.440001    8.429314   73.511185
Au    2.920000    3.371726   73.511185
Au   11.680000    3.371726   73.511185
Au    7.300000   10.958108   73.511185
Au   16.059999   10.958108   73.511185
Au    5.840000    3.371726   73.511185
Au   14.600000    3.371726   73.511185
Au   10.220000   10.958108   73.511185
Au   18.980000   10.958108   73.511185
Au    8.760000    3.371726   73.511185
Au   17.520000    3.371726   73.511185
Au   13.140000   10.958108   73.511185
Au   21.900000   10.958108   73.511185
Au    4.380000    5.900520   73.511185
Au   13.140000    5.900520   73.511185
Au    7.300000    5.900520   73.511185
Au   16.059999    5.900520   73.511185
Au   10.220000    5.900520   73.511185
Au   18.980000    5.900520   73.511185
Au    0.000000    1.685863   75.895355
Au    8.760000    1.685863   75.895355
Au    4.380000    9.272245   75.895355
Au   13.140000    9.272245   75.895355
Au    2.920000    1.685863   75.895355
Au   11.680000    1.685863   75.895355
Au    7.300000    9.272245   75.895355
Au   16.059999    9.272245   75.895355
Au    5.840000    1.685863   75.895355
Au   14.600000    1.685863   75.895355
Au   10.220000    9.272245   75.895355
Au   18.980000    9.272245   75.895355
Au    1.460000    4.214657   75.895355
Au   10.220000    4.214657   75.895355
Au    5.840000   11.801040   75.895355
Au   14.600000   11.801040   75.895355
Au    4.380000    4.214657   75.895355
Au   13.140000    4.214657   75.895355
Au    8.760000   11.801040   75.895355
Au   17.520000   11.801040   75.895355
Au    7.300000    4.214657   75.895355
Au   16.059999    4.214657   75.895355
Au   11.680000   11.801040   75.895355
Au   20.440001   11.801040   75.895355
Au    2.920000    6.743451   75.895355
Au   11.680000    6.743451   75.895355
Au    5.840000    6.743451   75.895355
Au   14.600000    6.743451   75.895355
Au    8.760000    6.743451   75.895355
Au   17.520000    6.743451   75.895355
Au    0.000000    0.000000    0.000000
Au    0.000000    0.000000    0.000000
Au    0.000000    0.000000    0.000000
Au    0.000000    0.000000    0.000000
Au    0.000000    0.000000    0.000000
Au    0.000000    0.000000    0.000000
Au    0.000000    0.000000    0.000000
Au    0.000000    0.000000    0.000000
Au    0.000000    0.000000    0.000000
Au    0.000000    0.000000    0.000000
Au    0.000000    0.000000    0.000000
Au    0.000000    0.000000    0.000000
Au    0.000000    0.000000    0.000000
Au    0.000000    0.000000    0.000000
Au    0.000000    0.000000    0.000000
Au    0.000000    0.000000    0.000000
Au    0.000000    0.000000    0.000000
Au    0.000000    0.000000    0.000000
Au    0.000000    0.000000    0.000000
Au    0.000000    0.000000    0.000000
Au    0.000000    0.000000    0.000000
Au    0.000000    0.000000    0.000000
Au    0.000000    0.000000    0.000000
Au    0.000000    0.000000    0.000000
Au    0.000000    0.000000    0.000000
Au    0.000000    0.000000    0.000000
Au    0.000000    0.000000    0.000000
Au    0.000000    0.000000    0.000000
Au    0.000000    0.000000    0.000000
Au    0.000000    0.000000    0.000000
Au    0.000000    0.000000    0.000000
Au    0.000000    0.000000    0.000000
Au    0.000000    0.000000    0.000000
Au    0.000000    0.000000    0.000000
Au    0.000000    0.000000    0.000000
Au    0.000000    0.000000    0.000000
Au    0.000000    0.000000    0.000000
Au    0.000000    0.000000    0.000000
Au    0.000000    0.000000    0.000000
Au    0.000000    0.000000    0.000000
Au    0.000000    0.000000    0.000000
Au    0.000000    0.000000    0.000000
Au    0.000000    0.000000    0.000000
Au    0.000000    0.000000    0.000000
Au    0.000000    0.000000    0.000000
Au    0.000000    0.000000    0.000000
Au    0.000000    0.000000    0.000000
Au    0.000000    0.000000    0.000000
Au    0.000000    0.000000    0.000000
Au    0.000000    0.000000    0.000000
Au    0.000000    0.000000    0.000000
Au    0.000000    0.000000    0.000000
Au    0.000000    0.000000    0.000000
Au    0.000000    0.000000    0.000000
Au    0.000000    0.000000    0.000000
Au    0.000000    0.000000    0.000000
Au    0.000000    0.000000    0.000000
Au    0.000000    0.000000    0.000000
Au    0.000000    0.000000    0.000000
Au    0.000000    0.000000    0.000000
Au    0.000000    0.000000    0.000000
Au    0.000000    0.000000    0.000000
Au    0.000000    0.000000    0.000000
Au    0.000000    0.000000    0.000000
Au    0.000000    0.000000    0.000000
Au    0.000000    0.000000    0.000000
Au    0.000000    0.000000    0.000000
Au    0.000000    0.000000    0.000000
Au    0.000000    0.000000    0.000000
Au    0.000000    0.000000    0.000000
Au    0.000000    0.000000    0.000000
Au    0.000000    0.000000    0.000000
Au    0.000000    0.000000    0.000000
Au    0.000000    0.000000    0.000000
Au    0.000000    0.000000    0.000000
Au    0.000000    0.000000    0.000000
Au    0.000000    0.000000    0.000000
Au    0.000000    0.000000    0.000000
Au    0.000000    0.000000    0.000000
Au    0.000000    0.000000    0.000000
Au    0.000000    0.000000    0.000000
Au    0.000000    0.000000    0.000000
Au    0.000000    0.000000    0.000000
Au    0.000000    0.000000    0.000000
Au    0.000000    0.000000    0.000000
Au    0.000000    0.000000    0.000000
Au    0.000000    0.000000    0.000000
Au    0.000000    0.000000    0.000000
Au    0.000000    0.000000    0.000000
Au    0.000000    0.000000    0.000000
Au    0.000000    0.000000    0.000000
Au    0.000000    0.000000    0.000000
Au    0.000000    0.000000    0.000000
Au    0.000000    0.000000    0.000000
Au    0.000000    0.000000    0.000000
Au    0.000000    0.000000    0.000000
Au    0.000000    0.000000    0.000000
Au    0.000000    0.000000    0.000000
Au    0.000000    0.000000    0.000000
Au    0.000000    0.000000    0.000000
