     262
 i =       33, E =     -6434.1716404871
 Au         0.0000000000        0.0000000000        0.0000000000
 Au         8.7600000000        0.0000000000        0.0000000000
 Au         4.3800000000        7.5863820000        0.0000000000
 Au        13.1400000000        7.5863820000        0.0000000000
 Au         2.9200000000        0.0000000000        0.0000000000
 Au        11.6800000000        0.0000000000        0.0000000000
 Au         7.3000000000        7.5863820000        0.0000000000
 Au        16.0599990000        7.5863820000        0.0000000000
 Au         5.8400000000        0.0000000000        0.0000000000
 Au        14.6000000000        0.0000000000        0.0000000000
 Au        10.2200000000        7.5863820000        0.0000000000
 Au        18.9800000000        7.5863820000        0.0000000000
 Au         1.4600000000        2.5287940000        0.0000000000
 Au        10.2200000000        2.5287940000        0.0000000000
 Au         5.8400000000       10.1151760000        0.0000000000
 Au        14.6000000000       10.1151760000        0.0000000000
 Au         4.3800000000        2.5287940000        0.0000000000
 Au        13.1400000000        2.5287940000        0.0000000000
 Au         8.7600000000       10.1151760000        0.0000000000
 Au        17.5200000000       10.1151760000        0.0000000000
 Au         7.3000000000        2.5287940000        0.0000000000
 Au        16.0599990000        2.5287940000        0.0000000000
 Au        11.6800000000       10.1151760000        0.0000000000
 Au        20.4400010000       10.1151760000        0.0000000000
 Au         2.9200000000        5.0575880000        0.0000000000
 Au        11.6800000000        5.0575880000        0.0000000000
 Au         5.8400000000        5.0575880000        0.0000000000
 Au        14.6000000000        5.0575880000        0.0000000000
 Au         8.7600000000        5.0575880000        0.0000000000
 Au        17.5200000000        5.0575880000        0.0000000000
 Au         1.4600000000        0.8429310000        2.3841700000
 Au        10.2200000000        0.8429310000        2.3841700000
 Au         5.8400000000        8.4293140000        2.3841700000
 Au        14.6000000000        8.4293140000        2.3841700000
 Au         4.3800000000        0.8429310000        2.3841700000
 Au        13.1400000000        0.8429310000        2.3841700000
 Au         8.7600000000        8.4293140000        2.3841700000
 Au        17.5200000000        8.4293140000        2.3841700000
 Au         7.3000000000        0.8429310000        2.3841700000
 Au        16.0599990000        0.8429310000        2.3841700000
 Au        11.6800000000        8.4293140000        2.3841700000
 Au        20.4400010000        8.4293140000        2.3841700000
 Au         2.9200000000        3.3717260000        2.3841700000
 Au        11.6800000000        3.3717260000        2.3841700000
 Au         7.3000000000       10.9581080000        2.3841700000
 Au        16.0599990000       10.9581080000        2.3841700000
 Au         5.8400000000        3.3717260000        2.3841700000
 Au        14.6000000000        3.3717260000        2.3841700000
 Au        10.2200000000       10.9581080000        2.3841700000
 Au        18.9800000000       10.9581080000        2.3841700000
 Au         8.7600000000        3.3717260000        2.3841700000
 Au        17.5200000000        3.3717260000        2.3841700000
 Au        13.1400000000       10.9581080000        2.3841700000
 Au        21.9000000000       10.9581080000        2.3841700000
 Au         4.3800000000        5.9005200000        2.3841700000
 Au        13.1400000000        5.9005200000        2.3841700000
 Au         7.3000000000        5.9005200000        2.3841700000
 Au        16.0599990000        5.9005200000        2.3841700000
 Au        10.2200000000        5.9005200000        2.3841700000
 Au        18.9800000000        5.9005200000        2.3841700000
 Au         0.0000000000        1.6858630000        4.7683400000
 Au         8.7600000000        1.6858630000        4.7683400000
 Au         4.3800000000        9.2722450000        4.7683400000
 Au        13.1400000000        9.2722450000        4.7683400000
 Au         2.9200000000        1.6858630000        4.7683400000
 Au        11.6800000000        1.6858630000        4.7683400000
 Au         7.3000000000        9.2722450000        4.7683400000
 Au        16.0599990000        9.2722450000        4.7683400000
 Au         5.8400000000        1.6858630000        4.7683400000
 Au        14.6000000000        1.6858630000        4.7683400000
 Au        10.2200000000        9.2722450000        4.7683400000
 Au        18.9800000000        9.2722450000        4.7683400000
 Au         1.4600000000        4.2146570000        4.7683400000
 Au        10.2200000000        4.2146570000        4.7683400000
 Au         5.8400000000       11.8010400000        4.7683400000
 Au        14.6000000000       11.8010400000        4.7683400000
 Au         4.3800000000        4.2146570000        4.7683400000
 Au        13.1400000000        4.2146570000        4.7683400000
 Au         8.7600000000       11.8010400000        4.7683400000
 Au        17.5200000000       11.8010400000        4.7683400000
 Au         7.3000000000        4.2146570000        4.7683400000
 Au        16.0599990000        4.2146570000        4.7683400000
 Au        11.6800000000       11.8010400000        4.7683400000
 Au        20.4400010000       11.8010400000        4.7683400000
 Au         2.9200000000        6.7434510000        4.7683400000
 Au        11.6800000000        6.7434510000        4.7683400000
 Au         5.8400000000        6.7434510000        4.7683400000
 Au        14.6000000000        6.7434510000        4.7683400000
 Au         8.7600000000        6.7434510000        4.7683400000
 Au        17.5200000000        6.7434510000        4.7683400000
  H        11.3335856375        4.9532984944       11.2082570462
  C        10.9881886050        5.6564623986       10.4477449861
  C        10.9937607174        7.0310940980       10.7204281014
  C        10.5555056350        7.9140853469        9.7190984973
  H        10.5589791187        8.9873034214        9.9149565302
  C        10.0778536333        7.4390118982        8.4999091148
  H         9.7125690464        8.1333609795        7.7420889907
  C        10.0282933168        6.0547279607        8.2583297071
  C        10.5207711669        5.1655607376        9.2296748818
  H        10.4973529435        4.0919111212        9.0431370612
  C        11.4517971238        7.5432798554       12.0689018983
  N        10.4931235870        8.5004347447       12.6531702375
  H        12.4050688109        8.0839641209       11.9553814843
  H        11.6509703456        6.6825407249       12.7343143609
  C        10.9420860475        9.2133827891       13.8313896621
  C         9.1805275713        7.9755699945       12.9783706301
  C         8.1420629289        8.9256854985       20.7068624448
  C         7.7563279151        7.6798394753       21.3413189146
  C         8.9611913153        7.0117550992       21.7956480138
  C        10.1004076611        7.8459694602       21.4403063162
  C         9.5917006564        9.0265041968       20.7626279730
  C        10.2968683704        9.5689158283       19.6838265202
  C        11.5412180458        8.9661095797       19.2437280602
  C        12.0338887214        7.8306076225       19.9002769720
  C        11.2934936621        7.2583636520       21.0128863516
  C        11.3986195861        5.8100394130       20.9207737526
  C        10.3052990230        5.0067882455       21.2577827501
  C         9.0629452540        5.6168944252       21.7040401374
  C         7.9627834391        4.8416260417       21.1646713154
  C         6.7972595028        5.4848260141       20.7320231971
  C         6.6913568076        6.9279782663       20.8187596522
  C         5.9771537458        7.3995486845       19.6478563452
  C         5.6433578004        6.2429097720       18.8313955056
  C         6.1444131299        5.0562931722       19.5042545286
  C         6.6795958869        4.0048232761       18.7563516446
  C         7.8912919896        3.3364499025       19.2057989888
  C         8.5203469275        3.7486087120       20.3842890940
  C         9.9683771401        3.8536083969       20.4401185684
  C        10.7340891728        3.5514185071       19.3097081785
  C        11.8673192156        4.3894185672       18.9564883394
  C        12.2000389528        5.4949937308       19.7511936925
  C        12.5913680131        6.7414978418       19.1220940183
  C        12.6335663977        6.8345064940       17.7252575984
  C        12.1208079895        8.0112290882       17.0468324321
  C        11.5988302955        9.0596527688       17.7964474942
  C        10.3678677248        9.7110338153       17.3362546683
  C         9.7600411498        9.3158230602       16.1538486943
  C        10.4322135462        8.4122383383       15.1167137696
  C        11.4891407240        7.5956270546       15.8002603125
  C        11.5598240745        6.1997977907       15.7346330639
  C        12.2806300984        5.6963492709       16.9109906538
  C        11.9096193893        4.4988742491       17.5130487087
  C        10.7981965863        3.7151824920       16.9696443341
  C        10.0803095569        3.1292498904       18.0828031768
  C         8.6841162722        3.0157994820       18.0320417554
  C         7.9665996307        3.4804864687       16.8604009186
  C         6.7287283090        4.0898881031       17.3057190533
  C         6.2510973771        5.2366154057       16.6568803346
  C         5.7024860908        6.3302796351       17.4373321144
  C         6.1055055530        7.5766331322       16.8083974769
  C         6.8992327734        7.2658135974       15.6408957993
  C         6.9824103306        5.8048379272       15.5396158205
  C         8.1764630287        5.2300804716       15.1182848452
  C         8.6719052950        4.0411353484       15.7877541943
  C        10.1087503484        4.1645451636       15.8486796126
  C        10.4720924853        5.4325504916       15.2027694715
  C         9.3123205650        6.0607777641       14.7365830607
  C         9.1943265343        7.5397230213       14.5127966897
  C         7.9793396209        8.0594591142       15.2850518135
  C         8.3326513332        9.1760604853       16.1129055174
  C         7.5450874170        9.5112606882       17.2395068074
  C         6.4088283681        8.6946517607       17.5927094015
  C         6.3468029178        8.6036723339       19.0395156289
  C         7.4506652595        9.3817183268       19.5793234887
  C         8.1821734059        9.9443308283       18.4599167665
  C         9.5780809246       10.0241375417       18.5062273406
  H         8.9024541646        7.1488618471       12.3146322875
  H         8.4269533737        8.7708891096       12.8687983195
  S         9.1310847060        5.3502882372        6.8987668863
  H        10.4743576408       10.2101746479       13.8618715227
  H        12.0308801119        9.3441366949       13.8338343986
 Au         8.7768458809        6.7556041236       25.9029300000
 Au         0.0000000000        0.0000000000       28.2119622578
 Au         8.7600000000        0.0000000000       28.2119622578
 Au         4.3800000000        7.5863820000       28.2119622578
 Au        13.1400000000        7.5863820000       28.2119622578
 Au         2.9200000000        0.0000000000       28.2119622578
 Au        11.6800000000        0.0000000000       28.2119622578
 Au         7.3000000000        7.5863820000       28.2119622578
 Au        16.0599990000        7.5863820000       28.2119622578
 Au         5.8400000000        0.0000000000       28.2119622578
 Au        14.6000000000        0.0000000000       28.2119622578
 Au        10.2200000000        7.5863820000       28.2119622578
 Au        18.9800000000        7.5863820000       28.2119622578
 Au         1.4600000000        2.5287940000       28.2119622578
 Au        10.2200000000        2.5287940000       28.2119622578
 Au         5.8400000000       10.1151760000       28.2119622578
 Au        14.6000000000       10.1151760000       28.2119622578
 Au         4.3800000000        2.5287940000       28.2119622578
 Au        13.1400000000        2.5287940000       28.2119622578
 Au         8.7600000000       10.1151760000       28.2119622578
 Au        17.5200000000       10.1151760000       28.2119622578
 Au         7.3000000000        2.5287940000       28.2119622578
 Au        16.0599990000        2.5287940000       28.2119622578
 Au        11.6800000000       10.1151760000       28.2119622578
 Au        20.4400010000       10.1151760000       28.2119622578
 Au         2.9200000000        5.0575880000       28.2119622578
 Au        11.6800000000        5.0575880000       28.2119622578
 Au         5.8400000000        5.0575880000       28.2119622578
 Au        14.6000000000        5.0575880000       28.2119622578
 Au         8.7600000000        5.0575880000       28.2119622578
 Au        17.5200000000        5.0575880000       28.2119622578
 Au         1.4600000000        0.8429310000       30.5961322578
 Au        10.2200000000        0.8429310000       30.5961322578
 Au         5.8400000000        8.4293140000       30.5961322578
 Au        14.6000000000        8.4293140000       30.5961322578
 Au         4.3800000000        0.8429310000       30.5961322578
 Au        13.1400000000        0.8429310000       30.5961322578
 Au         8.7600000000        8.4293140000       30.5961322578
 Au        17.5200000000        8.4293140000       30.5961322578
 Au         7.3000000000        0.8429310000       30.5961322578
 Au        16.0599990000        0.8429310000       30.5961322578
 Au        11.6800000000        8.4293140000       30.5961322578
 Au        20.4400010000        8.4293140000       30.5961322578
 Au         2.9200000000        3.3717260000       30.5961322578
 Au        11.6800000000        3.3717260000       30.5961322578
 Au         7.3000000000       10.9581080000       30.5961322578
 Au        16.0599990000       10.9581080000       30.5961322578
 Au         5.8400000000        3.3717260000       30.5961322578
 Au        14.6000000000        3.3717260000       30.5961322578
 Au        10.2200000000       10.9581080000       30.5961322578
 Au        18.9800000000       10.9581080000       30.5961322578
 Au         8.7600000000        3.3717260000       30.5961322578
 Au        17.5200000000        3.3717260000       30.5961322578
 Au        13.1400000000       10.9581080000       30.5961322578
 Au        21.9000000000       10.9581080000       30.5961322578
 Au         4.3800000000        5.9005200000       30.5961322578
 Au        13.1400000000        5.9005200000       30.5961322578
 Au         7.3000000000        5.9005200000       30.5961322578
 Au        16.0599990000        5.9005200000       30.5961322578
 Au        10.2200000000        5.9005200000       30.5961322578
 Au        18.9800000000        5.9005200000       30.5961322578
 Au         0.0000000000        1.6858630000       32.9803022578
 Au         8.7600000000        1.6858630000       32.9803022578
 Au         4.3800000000        9.2722450000       32.9803022578
 Au        13.1400000000        9.2722450000       32.9803022578
 Au         2.9200000000        1.6858630000       32.9803022578
 Au        11.6800000000        1.6858630000       32.9803022578
 Au         7.3000000000        9.2722450000       32.9803022578
 Au        16.0599990000        9.2722450000       32.9803022578
 Au         5.8400000000        1.6858630000       32.9803022578
 Au        14.6000000000        1.6858630000       32.9803022578
 Au        10.2200000000        9.2722450000       32.9803022578
 Au        18.9800000000        9.2722450000       32.9803022578
 Au         1.4600000000        4.2146570000       32.9803022578
 Au        10.2200000000        4.2146570000       32.9803022578
 Au         5.8400000000       11.8010400000       32.9803022578
 Au        14.6000000000       11.8010400000       32.9803022578
 Au         4.3800000000        4.2146570000       32.9803022578
 Au        13.1400000000        4.2146570000       32.9803022578
 Au         8.7600000000       11.8010400000       32.9803022578
 Au        17.5200000000       11.8010400000       32.9803022578
 Au         7.3000000000        4.2146570000       32.9803022578
 Au        16.0599990000        4.2146570000       32.9803022578
 Au        11.6800000000       11.8010400000       32.9803022578
 Au        20.4400010000       11.8010400000       32.9803022578
 Au         2.9200000000        6.7434510000       32.9803022578
 Au        11.6800000000        6.7434510000       32.9803022578
 Au         5.8400000000        6.7434510000       32.9803022578
 Au        14.6000000000        6.7434510000       32.9803022578
 Au         8.7600000000        6.7434510000       32.9803022578
 Au        17.5200000000        6.7434510000       32.9803022578
Au    0.000000    0.000000    56.8219922578    R1
Au    8.760000    0.000000    56.8219922578    R1
Au    4.380000    7.586382    56.8219922578    R1
Au    13.140000    7.586382    56.8219922578    R1
Au    2.920000    0.000000    56.8219922578    R1
Au    11.680000    0.000000    56.8219922578    R1
Au    7.300000    7.586382    56.8219922578    R1
Au    16.059999    7.586382    56.8219922578    R1
Au    5.840000    0.000000    56.8219922578    R1
Au    14.600000    0.000000    56.8219922578    R1
Au    10.220000    7.586382    56.8219922578    R1
Au    18.980000    7.586382    56.8219922578    R1
Au    1.460000    2.528794    56.8219922578    R1
Au    10.220000    2.528794    56.8219922578    R1
Au    5.840000    10.115176    56.8219922578    R1
Au    14.600000    10.115176    56.8219922578    R1
Au    4.380000    2.528794    56.8219922578    R1
Au    13.140000    2.528794    56.8219922578    R1
Au    8.760000    10.115176    56.8219922578    R1
Au    17.520000    10.115176    56.8219922578    R1
Au    7.300000    2.528794    56.8219922578    R1
Au    16.059999    2.528794    56.8219922578    R1
Au    11.680000    10.115176    56.8219922578    R1
Au    20.440001    10.115176    56.8219922578    R1
Au    2.920000    5.057588    56.8219922578    R1
Au    11.680000    5.057588    56.8219922578    R1
Au    5.840000    5.057588    56.8219922578    R1
Au    14.600000    5.057588    56.8219922578    R1
Au    8.760000    5.057588    56.8219922578    R1
Au    17.520000    5.057588    56.8219922578    R1
Au    1.460000    0.842931    59.2061622578    R1
Au    10.220000    0.842931    59.2061622578    R1
Au    5.840000    8.429314    59.2061622578    R1
Au    14.600000    8.429314    59.2061622578    R1
Au    4.380000    0.842931    59.2061622578    R1
Au    13.140000    0.842931    59.2061622578    R1
Au    8.760000    8.429314    59.2061622578    R1
Au    17.520000    8.429314    59.2061622578    R1
Au    7.300000    0.842931    59.2061622578    R1
Au    16.059999    0.842931    59.2061622578    R1
Au    11.680000    8.429314    59.2061622578    R1
Au    20.440001    8.429314    59.2061622578    R1
Au    2.920000    3.371726    59.2061622578    R1
Au    11.680000    3.371726    59.2061622578    R1
Au    7.300000    10.958108    59.2061622578    R1
Au    16.059999    10.958108    59.2061622578    R1
Au    5.840000    3.371726    59.2061622578    R1
Au    14.600000    3.371726    59.2061622578    R1
Au    10.220000    10.958108    59.2061622578    R1
Au    18.980000    10.958108    59.2061622578    R1
Au    8.760000    3.371726    59.2061622578    R1
Au    17.520000    3.371726    59.2061622578    R1
Au    13.140000    10.958108    59.2061622578    R1
Au    21.900000    10.958108    59.2061622578    R1
Au    4.380000    5.900520    59.2061622578    R1
Au    13.140000    5.900520    59.2061622578    R1
Au    7.300000    5.900520    59.2061622578    R1
Au    16.059999    5.900520    59.2061622578    R1
Au    10.220000    5.900520    59.2061622578    R1
Au    18.980000    5.900520    59.2061622578    R1
Au    0.000000    1.685863    61.5903322578    R1
Au    8.760000    1.685863    61.5903322578    R1
Au    4.380000    9.272245    61.5903322578    R1
Au    13.140000    9.272245    61.5903322578    R1
Au    2.920000    1.685863    61.5903322578    R1
Au    11.680000    1.685863    61.5903322578    R1
Au    7.300000    9.272245    61.5903322578    R1
Au    16.059999    9.272245    61.5903322578    R1
Au    5.840000    1.685863    61.5903322578    R1
Au    14.600000    1.685863    61.5903322578    R1
Au    10.220000    9.272245    61.5903322578    R1
Au    18.980000    9.272245    61.5903322578    R1
Au    1.460000    4.214657    61.5903322578    R1
Au    10.220000    4.214657    61.5903322578    R1
Au    5.840000    11.801040    61.5903322578    R1
Au    14.600000    11.801040    61.5903322578    R1
Au    4.380000    4.214657    61.5903322578    R1
Au    13.140000    4.214657    61.5903322578    R1
Au    8.760000    11.801040    61.5903322578    R1
Au    17.520000    11.801040    61.5903322578    R1
Au    7.300000    4.214657    61.5903322578    R1
Au    16.059999    4.214657    61.5903322578    R1
Au    11.680000    11.801040    61.5903322578    R1
Au    20.440001    11.801040    61.5903322578    R1
Au    2.920000    6.743451    61.5903322578    R1
Au    11.680000    6.743451    61.5903322578    R1
Au    5.840000    6.743451    61.5903322578    R1
Au    14.600000    6.743451    61.5903322578    R1
Au    8.760000    6.743451    61.5903322578    R1
Au    17.520000    6.743451    61.5903322578    R1
Au    0.000000    0.000000    63.9745012578    R2
Au    8.760000    0.000000    63.9745012578    R2
Au    4.380000    7.586382    63.9745012578    R2
Au    13.140000    7.586382    63.9745012578    R2
Au    2.920000    0.000000    63.9745012578    R2
Au    11.680000    0.000000    63.9745012578    R2
Au    7.300000    7.586382    63.9745012578    R2
Au    16.059999    7.586382    63.9745012578    R2
Au    5.840000    0.000000    63.9745012578    R2
Au    14.600000    0.000000    63.9745012578    R2
Au    10.220000    7.586382    63.9745012578    R2
Au    18.980000    7.586382    63.9745012578    R2
Au    1.460000    2.528794    63.9745012578    R2
Au    10.220000    2.528794    63.9745012578    R2
Au    5.840000    10.115176    63.9745012578    R2
Au    14.600000    10.115176    63.9745012578    R2
Au    4.380000    2.528794    63.9745012578    R2
Au    13.140000    2.528794    63.9745012578    R2
Au    8.760000    10.115176    63.9745012578    R2
Au    17.520000    10.115176    63.9745012578    R2
Au    7.300000    2.528794    63.9745012578    R2
Au    16.059999    2.528794    63.9745012578    R2
Au    11.680000    10.115176    63.9745012578    R2
Au    20.440001    10.115176    63.9745012578    R2
Au    2.920000    5.057588    63.9745012578    R2
Au    11.680000    5.057588    63.9745012578    R2
Au    5.840000    5.057588    63.9745012578    R2
Au    14.600000    5.057588    63.9745012578    R2
Au    8.760000    5.057588    63.9745012578    R2
Au    17.520000    5.057588    63.9745012578    R2
Au    1.460000    0.842931    66.3586722578    R2
Au    10.220000    0.842931    66.3586722578    R2
Au    5.840000    8.429314    66.3586722578    R2
Au    14.600000    8.429314    66.3586722578    R2
Au    4.380000    0.842931    66.3586722578    R2
Au    13.140000    0.842931    66.3586722578    R2
Au    8.760000    8.429314    66.3586722578    R2
Au    17.520000    8.429314    66.3586722578    R2
Au    7.300000    0.842931    66.3586722578    R2
Au    16.059999    0.842931    66.3586722578    R2
Au    11.680000    8.429314    66.3586722578    R2
Au    20.440001    8.429314    66.3586722578    R2
Au    2.920000    3.371726    66.3586722578    R2
Au    11.680000    3.371726    66.3586722578    R2
Au    7.300000    10.958108    66.3586722578    R2
Au    16.059999    10.958108    66.3586722578    R2
Au    5.840000    3.371726    66.3586722578    R2
Au    14.600000    3.371726    66.3586722578    R2
Au    10.220000    10.958108    66.3586722578    R2
Au    18.980000    10.958108    66.3586722578    R2
Au    8.760000    3.371726    66.3586722578    R2
Au    17.520000    3.371726    66.3586722578    R2
Au    13.140000    10.958108    66.3586722578    R2
Au    21.900000    10.958108    66.3586722578    R2
Au    4.380000    5.900520    66.3586722578    R2
Au    13.140000    5.900520    66.3586722578    R2
Au    7.300000    5.900520    66.3586722578    R2
Au    16.059999    5.900520    66.3586722578    R2
Au    10.220000    5.900520    66.3586722578    R2
Au    18.980000    5.900520    66.3586722578    R2
Au    0.000000    1.685863    68.7428422578    R2
Au    8.760000    1.685863    68.7428422578    R2
Au    4.380000    9.272245    68.7428422578    R2
Au    13.140000    9.272245    68.7428422578    R2
Au    2.920000    1.685863    68.7428422578    R2
Au    11.680000    1.685863    68.7428422578    R2
Au    7.300000    9.272245    68.7428422578    R2
Au    16.059999    9.272245    68.7428422578    R2
Au    5.840000    1.685863    68.7428422578    R2
Au    14.600000    1.685863    68.7428422578    R2
Au    10.220000    9.272245    68.7428422578    R2
Au    18.980000    9.272245    68.7428422578    R2
Au    1.460000    4.214657    68.7428422578    R2
Au    10.220000    4.214657    68.7428422578    R2
Au    5.840000    11.801040    68.7428422578    R2
Au    14.600000    11.801040    68.7428422578    R2
Au    4.380000    4.214657    68.7428422578    R2
Au    13.140000    4.214657    68.7428422578    R2
Au    8.760000    11.801040    68.7428422578    R2
Au    17.520000    11.801040    68.7428422578    R2
Au    7.300000    4.214657    68.7428422578    R2
Au    16.059999    4.214657    68.7428422578    R2
Au    11.680000    11.801040    68.7428422578    R2
Au    20.440001    11.801040    68.7428422578    R2
Au    2.920000    6.743451    68.7428422578    R2
Au    11.680000    6.743451    68.7428422578    R2
Au    5.840000    6.743451    68.7428422578    R2
Au    14.600000    6.743451    68.7428422578    R2
Au    8.760000    6.743451    68.7428422578    R2
Au    17.520000    6.743451    68.7428422578    R2
Au    0.000000    0.000000    71.12701125779999    R3
Au    8.760000    0.000000    71.12701125779999    R3
Au    4.380000    7.586382    71.12701125779999    R3
Au    13.140000    7.586382    71.12701125779999    R3
Au    2.920000    0.000000    71.12701125779999    R3
Au    11.680000    0.000000    71.12701125779999    R3
Au    7.300000    7.586382    71.12701125779999    R3
Au    16.059999    7.586382    71.12701125779999    R3
Au    5.840000    0.000000    71.12701125779999    R3
Au    14.600000    0.000000    71.12701125779999    R3
Au    10.220000    7.586382    71.12701125779999    R3
Au    18.980000    7.586382    71.12701125779999    R3
Au    1.460000    2.528794    71.12701125779999    R3
Au    10.220000    2.528794    71.12701125779999    R3
Au    5.840000    10.115176    71.12701125779999    R3
Au    14.600000    10.115176    71.12701125779999    R3
Au    4.380000    2.528794    71.12701125779999    R3
Au    13.140000    2.528794    71.12701125779999    R3
Au    8.760000    10.115176    71.12701125779999    R3
Au    17.520000    10.115176    71.12701125779999    R3
Au    7.300000    2.528794    71.12701125779999    R3
Au    16.059999    2.528794    71.12701125779999    R3
Au    11.680000    10.115176    71.12701125779999    R3
Au    20.440001    10.115176    71.12701125779999    R3
Au    2.920000    5.057588    71.12701125779999    R3
Au    11.680000    5.057588    71.12701125779999    R3
Au    5.840000    5.057588    71.12701125779999    R3
Au    14.600000    5.057588    71.12701125779999    R3
Au    8.760000    5.057588    71.12701125779999    R3
Au    17.520000    5.057588    71.12701125779999    R3
Au    1.460000    0.842931    73.5111822578    R3
Au    10.220000    0.842931    73.5111822578    R3
Au    5.840000    8.429314    73.5111822578    R3
Au    14.600000    8.429314    73.5111822578    R3
Au    4.380000    0.842931    73.5111822578    R3
Au    13.140000    0.842931    73.5111822578    R3
Au    8.760000    8.429314    73.5111822578    R3
Au    17.520000    8.429314    73.5111822578    R3
Au    7.300000    0.842931    73.5111822578    R3
Au    16.059999    0.842931    73.5111822578    R3
Au    11.680000    8.429314    73.5111822578    R3
Au    20.440001    8.429314    73.5111822578    R3
Au    2.920000    3.371726    73.5111822578    R3
Au    11.680000    3.371726    73.5111822578    R3
Au    7.300000    10.958108    73.5111822578    R3
Au    16.059999    10.958108    73.5111822578    R3
Au    5.840000    3.371726    73.5111822578    R3
Au    14.600000    3.371726    73.5111822578    R3
Au    10.220000    10.958108    73.5111822578    R3
Au    18.980000    10.958108    73.5111822578    R3
Au    8.760000    3.371726    73.5111822578    R3
Au    17.520000    3.371726    73.5111822578    R3
Au    13.140000    10.958108    73.5111822578    R3
Au    21.900000    10.958108    73.5111822578    R3
Au    4.380000    5.900520    73.5111822578    R3
Au    13.140000    5.900520    73.5111822578    R3
Au    7.300000    5.900520    73.5111822578    R3
Au    16.059999    5.900520    73.5111822578    R3
Au    10.220000    5.900520    73.5111822578    R3
Au    18.980000    5.900520    73.5111822578    R3
Au    0.000000    1.685863    75.8953522578    R3
Au    8.760000    1.685863    75.8953522578    R3
Au    4.380000    9.272245    75.8953522578    R3
Au    13.140000    9.272245    75.8953522578    R3
Au    2.920000    1.685863    75.8953522578    R3
Au    11.680000    1.685863    75.8953522578    R3
Au    7.300000    9.272245    75.8953522578    R3
Au    16.059999    9.272245    75.8953522578    R3
Au    5.840000    1.685863    75.8953522578    R3
Au    14.600000    1.685863    75.8953522578    R3
Au    10.220000    9.272245    75.8953522578    R3
Au    18.980000    9.272245    75.8953522578    R3
Au    1.460000    4.214657    75.8953522578    R3
Au    10.220000    4.214657    75.8953522578    R3
Au    5.840000    11.801040    75.8953522578    R3
Au    14.600000    11.801040    75.8953522578    R3
Au    4.380000    4.214657    75.8953522578    R3
Au    13.140000    4.214657    75.8953522578    R3
Au    8.760000    11.801040    75.8953522578    R3
Au    17.520000    11.801040    75.8953522578    R3
Au    7.300000    4.214657    75.8953522578    R3
Au    16.059999    4.214657    75.8953522578    R3
Au    11.680000    11.801040    75.8953522578    R3
Au    20.440001    11.801040    75.8953522578    R3
Au    2.920000    6.743451    75.8953522578    R3
Au    11.680000    6.743451    75.8953522578    R3
Au    5.840000    6.743451    75.8953522578    R3
Au    14.600000    6.743451    75.8953522578    R3
Au    8.760000    6.743451    75.8953522578    R3
Au    17.520000    6.743451    75.8953522578    R3
