262
 i =       78, E =     -7630.7679613509
Au    0.000000    0.000000    0.000000    L0     
Au    8.760000    0.000000    0.000000    L0     
Au    4.380000    7.586382    0.000000    L0     
Au    13.140000    7.586382    0.000000    L0     
Au    2.920000    0.000000    0.000000    L0     
Au    11.680000    0.000000    0.000000    L0     
Au    7.300000    7.586382    0.000000    L0     
Au    16.059999    7.586382    0.000000    L0     
Au    5.840000    0.000000    0.000000    L0     
Au    14.600000    0.000000    0.000000    L0     
Au    10.220000    7.586382    0.000000    L0     
Au    18.980000    7.586382    0.000000    L0     
Au    1.460000    2.528794    0.000000    L0     
Au    10.220000    2.528794    0.000000    L0     
Au    5.840000    10.115176    0.000000    L0     
Au    14.600000    10.115176    0.000000    L0     
Au    4.380000    2.528794    0.000000    L0     
Au    13.140000    2.528794    0.000000    L0     
Au    8.760000    10.115176    0.000000    L0     
Au    17.520000    10.115176    0.000000    L0     
Au    7.300000    2.528794    0.000000    L0     
Au    16.059999    2.528794    0.000000    L0     
Au    11.680000    10.115176    0.000000    L0     
Au    20.440001    10.115176    0.000000    L0     
Au    2.920000    5.057588    0.000000    L0     
Au    11.680000    5.057588    0.000000    L0     
Au    5.840000    5.057588    0.000000    L0     
Au    14.600000    5.057588    0.000000    L0     
Au    8.760000    5.057588    0.000000    L0     
Au    17.520000    5.057588    0.000000    L0     
Au    1.460000    0.842931    2.384170    L0     
Au    10.220000    0.842931    2.384170    L0     
Au    5.840000    8.429314    2.384170    L0     
Au    14.600000    8.429314    2.384170    L0     
Au    4.380000    0.842931    2.384170    L0     
Au    13.140000    0.842931    2.384170    L0     
Au    8.760000    8.429314    2.384170    L0     
Au    17.520000    8.429314    2.384170    L0     
Au    7.300000    0.842931    2.384170    L0     
Au    16.059999    0.842931    2.384170    L0     
Au    11.680000    8.429314    2.384170    L0     
Au    20.440001    8.429314    2.384170    L0     
Au    2.920000    3.371726    2.384170    L0     
Au    11.680000    3.371726    2.384170    L0     
Au    7.300000    10.958108    2.384170    L0     
Au    16.059999    10.958108    2.384170    L0     
Au    5.840000    3.371726    2.384170    L0     
Au    14.600000    3.371726    2.384170    L0     
Au    10.220000    10.958108    2.384170    L0     
Au    18.980000    10.958108    2.384170    L0     
Au    8.760000    3.371726    2.384170    L0     
Au    17.520000    3.371726    2.384170    L0     
Au    13.140000    10.958108    2.384170    L0     
Au    21.900000    10.958108    2.384170    L0     
Au    4.380000    5.900520    2.384170    L0     
Au    13.140000    5.900520    2.384170    L0     
Au    7.300000    5.900520    2.384170    L0     
Au    16.059999    5.900520    2.384170    L0     
Au    10.220000    5.900520    2.384170    L0     
Au    18.980000    5.900520    2.384170    L0     
Au    0.000000    1.685863    4.768340    L0     
Au    8.760000    1.685863    4.768340    L0     
Au    4.380000    9.272245    4.768340    L0     
Au    13.140000    9.272245    4.768340    L0     
Au    2.920000    1.685863    4.768340    L0     
Au    11.680000    1.685863    4.768340    L0     
Au    7.300000    9.272245    4.768340    L0     
Au    16.059999    9.272245    4.768340    L0     
Au    5.840000    1.685863    4.768340    L0     
Au    14.600000    1.685863    4.768340    L0     
Au    10.220000    9.272245    4.768340    L0     
Au    18.980000    9.272245    4.768340    L0     
Au    1.460000    4.214657    4.768340    L0     
Au    10.220000    4.214657    4.768340    L0     
Au    5.840000    11.801040    4.768340    L0     
Au    14.600000    11.801040    4.768340    L0     
Au    4.380000    4.214657    4.768340    L0     
Au    13.140000    4.214657    4.768340    L0     
Au    8.760000    11.801040    4.768340    L0     
Au    17.520000    11.801040    4.768340    L0     
Au    7.300000    4.214657    4.768340    L0     
Au    16.059999    4.214657    4.768340    L0     
Au    11.680000    11.801040    4.768340    L0     
Au    20.440001    11.801040    4.768340    L0     
Au    2.920000    6.743451    4.768340    L0     
Au    11.680000    6.743451    4.768340    L0     
Au    5.840000    6.743451    4.768340    L0     
Au    14.600000    6.743451    4.768340    L0     
Au    8.760000    6.743451    4.768340    L0     
Au    17.520000    6.743451    4.768340    L0     
H    11.7546703869    5.5387834819    11.0278233562    S
C    11.3226986626    6.1534202910    10.2359942551    S
C    11.2881725360    7.5468841841    10.3817652448    S
C    10.7364461634    8.3160306825    9.3439230963    S
H    10.7104417498    9.4029413674    9.4359759156    S
C    10.1748502605    7.7087470138    8.2242662050    S
H    9.7093311897    8.3156839861    7.4463463401    S
C    10.1677702653    6.3070449096    8.1123486059    S
C    10.7833082023    5.5325422823    9.1107510184    S
H    10.7970808283    4.4461152087    9.0237927066    S
C    11.7928106529    8.1920329370    11.6494604783    S
N    10.7935384952    9.1010012574    12.2573763787    S
H    12.6796269376    8.8099457867    11.4324417717    S
H    12.1195126916    7.4029640248    12.3505746993    S
C    11.1969235180    9.6731582255    13.5267190500    S
C    9.4637099272    8.5677751400    12.4794301849    S
C    8.1991859944    8.5121533280    20.2258649245    S
C    7.7876009863    7.1969637663    20.6778274985    S
C    8.9741799245    6.4626663880    21.0705294069    S
C    10.1278636504    7.3242596933    20.8641993646    S
C    9.6474133634    8.5898678245    20.3356407289    S
C    10.3878721410    9.2625673425    19.3591948239    S
C    11.6408294529    8.7094936648    18.8789561892    S
C    12.1065566979    7.4920560170    19.3934795664    S
C    11.3301530209    6.7859242918    20.3990606967    S
C    11.4289161623    5.3612632779    20.1204530806    S
C    10.3203657541    4.5327205634    20.3162781625    S
C    9.0693264121    5.0922213328    20.8019367203    S
C    7.9806949833    4.4056617477    20.1352253216    S
C    6.8319603473    5.1115958355    19.7589235739    S
C    6.7328257355    6.5318294706    20.0321800501    S
C    6.0564321920    7.1610369328    18.9141586864    S
C    5.7395739092    6.1253967524    17.9432322251    S
C    6.2138168883    4.8554291743    18.4674141132    S
C    6.7641101389    3.9055644801    17.6029948712    S
C    7.9575750492    3.1711822768    17.9947998207    S
C    8.5540656284    3.4186884515    19.2345396264    S
C    10.0006393615    3.5000839312    19.3452316895    S
C    10.7980769001    3.3402053814    18.2078289642    S
C    11.9468157711    4.2056432316    18.0008150641    S
C    12.2621884582    5.1944019036    18.9429195063    S
C    12.6800700464    6.5090408472    18.4950162477    S
C    12.7645294741    6.7846617210    17.1247288099    S
C    12.2799507913    8.0459863954    16.5929936050    S
C    11.7414823836    8.9918911818    17.4592971383    S
C    10.5293786374    9.7121763146    17.0544361516    S
C    9.9543265219    9.4824728698    15.8136110847    S
C    10.6506757492    8.7151270056    14.6866147535    S
C    11.6829384978    7.8049381957    15.2855959911    S
C    11.7450980009    6.4273572966    15.0404082123    S
C    12.4284150189    5.7666205613    16.1584994806    S
C    12.0322693389    4.5037193257    16.5862924127    S
C    10.9328644496    3.8092987623    15.9127387195    S
C    10.1781675168    3.0896351354    16.9177848973    S
C    8.7831814799    2.9990893430    16.8124982216    S
C    8.1037754627    3.6216476101    15.6924318142    S
C    6.8569825645    4.1806681364    16.1787798244    S
C    6.4055497998    5.4076690006    15.6736763699    S
C    5.8403970866    6.3949221666    16.5752574963    S
C    6.2695248803    7.7091580626    16.1281036800    S
C    7.0963287803    7.5459771431    14.9536932476    S
C    7.1738271601    6.1105865358    14.6636696855    S
C    8.3765812854    5.5833743114    14.2049346666    S
C    8.8442553089    4.3107744670    14.7239050665    S
C    10.2797826584    4.4093989706    14.8414978076    S
C    10.6704595361    5.7474887203    14.3811190649    S
C    9.5275776367    6.4446351275    13.9729402318    S
C    9.4261647283    7.9395271715    13.9437056183    S
C    8.1922467901    8.3677101298    14.7383786625    S
C    8.5277069087    9.3638529658    15.7139840143    S
C    7.7091025910    9.5557247271    16.8515961157    S
C    6.5574670856    8.7109544327    17.0612306708    S
C    6.4517925896    8.4311005206    18.4809435225    S
C    7.5440745687    9.1202580593    19.1499598331    S
C    8.3124911797    9.8179713757    18.1360187700    S
C    9.7070799536    9.8767549014    18.2322876451    S
H    9.1806869672    7.8416087073    11.7103559998    S
H    8.7358554279    9.3936085721    12.4576433507    S
S    9.1940739390    5.4435359226    6.9067603885    S
H    10.7174231457    10.6553396850    13.6600123521    S
H    12.2836668508    9.8087925030    13.5833195458    S
Au    8.76000    6.74345    24.0705294069  
Au    0.0000000000    0.0000000000    26.4546994069   
Au    8.7600000000    0.0000000000    26.4546994069   
Au    4.3800000000    7.5863820000    26.4546994069   
Au    13.1400000000    7.5863820000    26.4546994069  
Au    2.9200000000    0.0000000000    26.4546994069   
Au    11.6800000000    0.0000000000    26.4546994069  
Au    7.3000000000    7.5863820000    26.4546994069   
Au    16.0599990000    7.5863820000    26.4546994069  
Au    5.8400000000    0.0000000000    26.4546994069   
Au    14.6000000000    0.0000000000    26.4546994069  
Au    10.2200000000    7.5863820000    26.4546994069  
Au    18.9800000000    7.5863820000    26.4546994069  
Au    1.4600000000    2.5287940000    26.4546994069   
Au    10.2200000000    2.5287940000    26.4546994069  
Au    5.8400000000    10.1151760000    26.4546994069  
Au    14.6000000000    10.1151760000    26.4546994069 
Au    4.3800000000    2.5287940000    26.4546994069   
Au    13.1400000000    2.5287940000    26.4546994069  
Au    8.7600000000    10.1151760000    26.4546994069  
Au    17.5200000000    10.1151760000    26.4546994069 
Au    7.3000000000    2.5287940000    26.4546994069   
Au    16.0599990000    2.5287940000    26.4546994069  
Au    11.6800000000    10.1151760000    26.4546994069 
Au    20.4400010000    10.1151760000    26.4546994069 
Au    2.9200000000    5.0575880000    26.4546994069   
Au    11.6800000000    5.0575880000    26.4546994069  
Au    5.8400000000    5.0575880000    26.4546994069   
Au    14.6000000000    5.0575880000    26.4546994069  
Au    8.7600000000    5.0575880000    26.4546994069   
Au    17.5200000000    5.0575880000    26.4546994069  
Au    1.4600000000    0.8429310000    28.838869406900002    R0
Au    10.2200000000    0.8429310000    28.838869406900002    R0
Au    5.8400000000    8.4293140000    28.838869406900002    R0
Au    14.6000000000    8.4293140000    28.838869406900002    R0
Au    4.3800000000    0.8429310000    28.838869406900002    R0
Au    13.1400000000    0.8429310000    28.838869406900002    R0
Au    8.7600000000    8.4293140000    28.838869406900002    R0
Au    17.5200000000    8.4293140000    28.838869406900002    R0
Au    7.3000000000    0.8429310000    28.838869406900002    R0
Au    16.0599990000    0.8429310000    28.838869406900002    R0
Au    11.6800000000    8.4293140000    28.838869406900002    R0
Au    20.4400010000    8.4293140000    28.838869406900002    R0
Au    2.9200000000    3.3717260000    28.838869406900002    R0
Au    11.6800000000    3.3717260000    28.838869406900002    R0
Au    7.3000000000    10.9581080000    28.838869406900002    R0
Au    16.0599990000    10.9581080000    28.838869406900002    R0
Au    5.8400000000    3.3717260000    28.838869406900002    R0
Au    14.6000000000    3.3717260000    28.838869406900002    R0
Au    10.2200000000    10.9581080000    28.838869406900002    R0
Au    18.9800000000    10.9581080000    28.838869406900002    R0
Au    8.7600000000    3.3717260000    28.838869406900002    R0
Au    17.5200000000    3.3717260000    28.838869406900002    R0
Au    13.1400000000    10.9581080000    28.838869406900002    R0
Au    21.9000000000    10.9581080000    28.838869406900002    R0
Au    4.3800000000    5.9005200000    28.838869406900002    R0
Au    13.1400000000    5.9005200000    28.838869406900002    R0
Au    7.3000000000    5.9005200000    28.838869406900002    R0
Au    16.0599990000    5.9005200000    28.838869406900002    R0
Au    10.2200000000    5.9005200000    28.838869406900002    R0
Au    18.9800000000    5.9005200000    28.838869406900002    R0
Au    0.0000000000    1.6858630000    31.223039406900003    R0
Au    8.7600000000    1.6858630000    31.223039406900003    R0
Au    4.3800000000    9.2722450000    31.223039406900003    R0
Au    13.1400000000    9.2722450000    31.223039406900003    R0
Au    2.9200000000    1.6858630000    31.223039406900003    R0
Au    11.6800000000    1.6858630000    31.223039406900003    R0
Au    7.3000000000    9.2722450000    31.223039406900003    R0
Au    16.0599990000    9.2722450000    31.223039406900003    R0
Au    5.8400000000    1.6858630000    31.223039406900003    R0
Au    14.6000000000    1.6858630000    31.223039406900003    R0
Au    10.2200000000    9.2722450000    31.223039406900003    R0
Au    18.9800000000    9.2722450000    31.223039406900003    R0
Au    1.4600000000    4.2146570000    31.223039406900003    R0
Au    10.2200000000    4.2146570000    31.223039406900003    R0
Au    5.8400000000    11.8010400000    31.223039406900003    R0
Au    14.6000000000    11.8010400000    31.223039406900003    R0
Au    4.3800000000    4.2146570000    31.223039406900003    R0
Au    13.1400000000    4.2146570000    31.223039406900003    R0
Au    8.7600000000    11.8010400000    31.223039406900003    R0
Au    17.5200000000    11.8010400000    31.223039406900003    R0
Au    7.3000000000    4.2146570000    31.223039406900003    R0
Au    16.0599990000    4.2146570000    31.223039406900003    R0
Au    11.6800000000    11.8010400000    31.223039406900003    R0
Au    20.4400010000    11.8010400000    31.223039406900003    R0
Au    2.9200000000    6.7434510000    31.223039406900003    R0
Au    11.6800000000    6.7434510000    31.223039406900003    R0
Au    5.8400000000    6.7434510000    31.223039406900003    R0
Au    14.6000000000    6.7434510000    31.223039406900003    R0
Au    8.7600000000    6.7434510000    31.223039406900003    R0
Au    17.5200000000    6.7434510000    31.223039406900003    R0
