     902
 i =       72, E =     -6434.2718402668
 Au         0.0000000000        0.0000000000        0.0000000000
 Au         8.7600000000        0.0000000000        0.0000000000
 Au         4.3800000000        7.5863820000        0.0000000000
 Au        13.1400000000        7.5863820000        0.0000000000
 Au         2.9200000000        0.0000000000        0.0000000000
 Au        11.6800000000        0.0000000000        0.0000000000
 Au         7.3000000000        7.5863820000        0.0000000000
 Au        16.0599990000        7.5863820000        0.0000000000
 Au         5.8400000000        0.0000000000        0.0000000000
 Au        14.6000000000        0.0000000000        0.0000000000
 Au        10.2200000000        7.5863820000        0.0000000000
 Au        18.9800000000        7.5863820000        0.0000000000
 Au         1.4600000000        2.5287940000        0.0000000000
 Au        10.2200000000        2.5287940000        0.0000000000
 Au         5.8400000000       10.1151760000        0.0000000000
 Au        14.6000000000       10.1151760000        0.0000000000
 Au         4.3800000000        2.5287940000        0.0000000000
 Au        13.1400000000        2.5287940000        0.0000000000
 Au         8.7600000000       10.1151760000        0.0000000000
 Au        17.5200000000       10.1151760000        0.0000000000
 Au         7.3000000000        2.5287940000        0.0000000000
 Au        16.0599990000        2.5287940000        0.0000000000
 Au        11.6800000000       10.1151760000        0.0000000000
 Au        20.4400010000       10.1151760000        0.0000000000
 Au         2.9200000000        5.0575880000        0.0000000000
 Au        11.6800000000        5.0575880000        0.0000000000
 Au         5.8400000000        5.0575880000        0.0000000000
 Au        14.6000000000        5.0575880000        0.0000000000
 Au         8.7600000000        5.0575880000        0.0000000000
 Au        17.5200000000        5.0575880000        0.0000000000
 Au         1.4600000000        0.8429310000        2.3841700000
 Au        10.2200000000        0.8429310000        2.3841700000
 Au         5.8400000000        8.4293140000        2.3841700000
 Au        14.6000000000        8.4293140000        2.3841700000
 Au         4.3800000000        0.8429310000        2.3841700000
 Au        13.1400000000        0.8429310000        2.3841700000
 Au         8.7600000000        8.4293140000        2.3841700000
 Au        17.5200000000        8.4293140000        2.3841700000
 Au         7.3000000000        0.8429310000        2.3841700000
 Au        16.0599990000        0.8429310000        2.3841700000
 Au        11.6800000000        8.4293140000        2.3841700000
 Au        20.4400010000        8.4293140000        2.3841700000
 Au         2.9200000000        3.3717260000        2.3841700000
 Au        11.6800000000        3.3717260000        2.3841700000
 Au         7.3000000000       10.9581080000        2.3841700000
 Au        16.0599990000       10.9581080000        2.3841700000
 Au         5.8400000000        3.3717260000        2.3841700000
 Au        14.6000000000        3.3717260000        2.3841700000
 Au        10.2200000000       10.9581080000        2.3841700000
 Au        18.9800000000       10.9581080000        2.3841700000
 Au         8.7600000000        3.3717260000        2.3841700000
 Au        17.5200000000        3.3717260000        2.3841700000
 Au        13.1400000000       10.9581080000        2.3841700000
 Au        21.9000000000       10.9581080000        2.3841700000
 Au         4.3800000000        5.9005200000        2.3841700000
 Au        13.1400000000        5.9005200000        2.3841700000
 Au         7.3000000000        5.9005200000        2.3841700000
 Au        16.0599990000        5.9005200000        2.3841700000
 Au        10.2200000000        5.9005200000        2.3841700000
 Au        18.9800000000        5.9005200000        2.3841700000
 Au         0.0000000000        1.6858630000        4.7683400000
 Au         8.7600000000        1.6858630000        4.7683400000
 Au         4.3800000000        9.2722450000        4.7683400000
 Au        13.1400000000        9.2722450000        4.7683400000
 Au         2.9200000000        1.6858630000        4.7683400000
 Au        11.6800000000        1.6858630000        4.7683400000
 Au         7.3000000000        9.2722450000        4.7683400000
 Au        16.0599990000        9.2722450000        4.7683400000
 Au         5.8400000000        1.6858630000        4.7683400000
 Au        14.6000000000        1.6858630000        4.7683400000
 Au        10.2200000000        9.2722450000        4.7683400000
 Au        18.9800000000        9.2722450000        4.7683400000
 Au         1.4600000000        4.2146570000        4.7683400000
 Au        10.2200000000        4.2146570000        4.7683400000
 Au         5.8400000000       11.8010400000        4.7683400000
 Au        14.6000000000       11.8010400000        4.7683400000
 Au         4.3800000000        4.2146570000        4.7683400000
 Au        13.1400000000        4.2146570000        4.7683400000
 Au         8.7600000000       11.8010400000        4.7683400000
 Au        17.5200000000       11.8010400000        4.7683400000
 Au         7.3000000000        4.2146570000        4.7683400000
 Au        16.0599990000        4.2146570000        4.7683400000
 Au        11.6800000000       11.8010400000        4.7683400000
 Au        20.4400010000       11.8010400000        4.7683400000
 Au         2.9200000000        6.7434510000        4.7683400000
 Au        11.6800000000        6.7434510000        4.7683400000
 Au         5.8400000000        6.7434510000        4.7683400000
 Au        14.6000000000        6.7434510000        4.7683400000
 Au         8.7600000000        6.7434510000        4.7683400000
 Au        17.5200000000        6.7434510000        4.7683400000
  H        11.4447707642        5.1437433696       11.1846164063
  C        11.0660967620        5.8211971712       10.4165923210
  C        11.0674295439        7.2031867891       10.6498286357
  C        10.5837706703        8.0517311973        9.6395952611
  H        10.5808887653        9.1307800915        9.8013506298
  C        10.0724587230        7.5352377137        8.4506150354
  H         9.6737264106        8.2040037845        7.6865376643
  C        10.0366649169        6.1445539118        8.2451117958
  C        10.5682172496        5.2905984588        9.2276544078
  H        10.5542907408        4.2118196339        9.0722883445
  C        11.5692971633        7.7517971154       11.9675082817
  N        10.6218040669        8.7077836464       12.5763543294
  H        12.5104106906        8.3027529988       11.8103466042
  H        11.8033516247        6.9077689250       12.6427464495
  C        11.0837186642        9.3835786428       13.7702680486
  C         9.3040177163        8.1958625591       12.8907732449
  C         8.2751304359        8.9180814583       20.6374247908
  C         7.8704470677        7.6706511412       21.2397769899
  C         9.0703798737        6.9853605427       21.7580742393
  C        10.2273021706        7.8149742518       21.3501866681
  C         9.7247804503        9.0045482291       20.6983504333
  C        10.4364615898        9.5771367527       19.6362487967
  C        11.6751259383        8.9795062222       19.1807443205
  C        12.1523008409        7.8195594000       19.8044480634
  C        11.4058229988        7.2243939487       20.8986938151
  C        11.4980542517        5.7755681028       20.7608512062
  C        10.4028548274        4.9668182716       21.0772543805
  C         9.1664293878        5.5660529303       21.5451186395
  C         8.0618821792        4.8245965547       20.9750635286
  C         6.9082367331        5.4959926529       20.5558774632
  C         6.8113671871        6.9393562213       20.6884001412
  C         6.1019357484        7.4480918695       19.5323154784
  C         5.7595231557        6.3178550963       18.6835011258
  C         6.2497833062        5.1079251163       19.3210488437
  C         6.7764381560        4.0729636565       18.5429056145
  C         7.9803442480        3.3785993546       18.9738520845
  C         8.6109875531        3.7500875223       20.1641189857
  C        10.0583396241        3.8407297267       20.2253122173
  C        10.8223707274        3.5666875001       19.0873304913
  C        11.9615637466        4.4070549152       18.7605777375
  C        12.3004811824        5.4876764317       19.5881036173
  C        12.7021983058        6.7485139672       18.9959788463
  C        12.7486604185        6.8815800798       17.6035948060
  C        12.2485739991        8.0821624514       16.9579683947
  C        11.7365390865        9.1142423283       17.7365906771
  C        10.5117168501        9.7878397177       17.2940862930
  C         9.9021187441        9.4320066109       16.1001139001
  C        10.5672005902        8.5518742359       15.0377558328
  C        11.6152945251        7.7076413052       15.7001078889
  C        11.6746100216        6.3118448256       15.5944359777
  C        12.3875021134        5.7697340264       16.7556690188
  C        12.0082768951        4.5565181243       17.3220680578
  C        10.8924764042        3.7979201675       16.7535378745
  C        10.1679739252        3.1848048115       17.8477722767
  C         8.7709361358        3.0847891423       17.7921821202
  C         8.0585297164        3.5904110694       16.6342741695
  C         6.8260091996        4.1982105862       17.0968689888
  C         6.3596693686        5.3687067641       16.4816758184
  C         5.8194086592        6.4445569847       17.2934637379
  C         6.2318165601        7.7056540057       16.7010844072
  C         7.0239640064        7.4209624290       15.5268873188
  C         7.0959983877        5.9622511332       15.3830839823
  C         8.2857128185        5.3900451832       14.9454617716
  C         8.7700612440        4.1776986824       15.5805649655
  C        10.2079530324        4.2868558866       15.6460478672
  C        10.5821456290        5.5701943591       15.0380702598
  C         9.4278810480        6.2223081828       14.5896596851
  C         9.3218851747        7.7078745448       14.4111429598
  C         8.1125448055        8.2137713798       15.1976775223
  C         8.4732123179        9.3054745400       16.0545212876
  C         7.6867917033        9.6147928305       17.1887857634
  C         6.5420475137        8.7995857725       17.5163275957
  C         6.4786394779        8.6671904750       18.9596780650
  C         7.5875993149        9.4173850474       19.5228570417
  C         8.3258614427       10.0051999270       18.4228481947
  C         9.7224579922       10.0709137835       18.4729078387
  H         9.0053637289        7.3989565460       12.2005439893
  H         8.5653492864        9.0091731855       12.8175918250
  S         9.1336528826        5.3888877745        6.9163012993
  H        10.6263659978       10.3836419685       13.8324212150
  H        12.1738812302        9.5020992952       13.7734643586
 Au         8.9159090984        6.6802380938       23.9784651646
Au    0.0000000000    0.0000000000    26.4546994069   
Au    8.7600000000    0.0000000000    26.4546994069   
Au    4.3800000000    7.5863820000    26.4546994069   
Au    13.1400000000    7.5863820000    26.4546994069  
Au    2.9200000000    0.0000000000    26.4546994069   
Au    11.6800000000    0.0000000000    26.4546994069  
Au    7.3000000000    7.5863820000    26.4546994069   
Au    16.0599990000    7.5863820000    26.4546994069  
Au    5.8400000000    0.0000000000    26.4546994069   
Au    14.6000000000    0.0000000000    26.4546994069  
Au    10.2200000000    7.5863820000    26.4546994069  
Au    18.9800000000    7.5863820000    26.4546994069  
Au    1.4600000000    2.5287940000    26.4546994069   
Au    10.2200000000    2.5287940000    26.4546994069  
Au    5.8400000000    10.1151760000    26.4546994069  
Au    14.6000000000    10.1151760000    26.4546994069 
Au    4.3800000000    2.5287940000    26.4546994069   
Au    13.1400000000    2.5287940000    26.4546994069  
Au    8.7600000000    10.1151760000    26.4546994069  
Au    17.5200000000    10.1151760000    26.4546994069 
Au    7.3000000000    2.5287940000    26.4546994069   
Au    16.0599990000    2.5287940000    26.4546994069  
Au    11.6800000000    10.1151760000    26.4546994069 
Au    20.4400010000    10.1151760000    26.4546994069 
Au    2.9200000000    5.0575880000    26.4546994069   
Au    11.6800000000    5.0575880000    26.4546994069  
Au    5.8400000000    5.0575880000    26.4546994069   
Au    14.6000000000    5.0575880000    26.4546994069  
Au    8.7600000000    5.0575880000    26.4546994069   
Au    17.5200000000    5.0575880000    26.4546994069  
 Au         1.4600000000        0.8429310000       28.8388694069
 Au        10.2200000000        0.8429310000       28.8388694069
 Au         5.8400000000        8.4293140000       28.8388694069
 Au        14.6000000000        8.4293140000       28.8388694069
 Au         4.3800000000        0.8429310000       28.8388694069
 Au        13.1400000000        0.8429310000       28.8388694069
 Au         8.7600000000        8.4293140000       28.8388694069
 Au        17.5200000000        8.4293140000       28.8388694069
 Au         7.3000000000        0.8429310000       28.8388694069
 Au        16.0599990000        0.8429310000       28.8388694069
 Au        11.6800000000        8.4293140000       28.8388694069
 Au        20.4400010000        8.4293140000       28.8388694069
 Au         2.9200000000        3.3717260000       28.8388694069
 Au        11.6800000000        3.3717260000       28.8388694069
 Au         7.3000000000       10.9581080000       28.8388694069
 Au        16.0599990000       10.9581080000       28.8388694069
 Au         5.8400000000        3.3717260000       28.8388694069
 Au        14.6000000000        3.3717260000       28.8388694069
 Au        10.2200000000       10.9581080000       28.8388694069
 Au        18.9800000000       10.9581080000       28.8388694069
 Au         8.7600000000        3.3717260000       28.8388694069
 Au        17.5200000000        3.3717260000       28.8388694069
 Au        13.1400000000       10.9581080000       28.8388694069
 Au        21.9000000000       10.9581080000       28.8388694069
 Au         4.3800000000        5.9005200000       28.8388694069
 Au        13.1400000000        5.9005200000       28.8388694069
 Au         7.3000000000        5.9005200000       28.8388694069
 Au        16.0599990000        5.9005200000       28.8388694069
 Au        10.2200000000        5.9005200000       28.8388694069
 Au        18.9800000000        5.9005200000       28.8388694069
 Au         0.0000000000        1.6858630000       31.2230394069
 Au         8.7600000000        1.6858630000       31.2230394069
 Au         4.3800000000        9.2722450000       31.2230394069
 Au        13.1400000000        9.2722450000       31.2230394069
 Au         2.9200000000        1.6858630000       31.2230394069
 Au        11.6800000000        1.6858630000       31.2230394069
 Au         7.3000000000        9.2722450000       31.2230394069
 Au        16.0599990000        9.2722450000       31.2230394069
 Au         5.8400000000        1.6858630000       31.2230394069
 Au        14.6000000000        1.6858630000       31.2230394069
 Au        10.2200000000        9.2722450000       31.2230394069
 Au        18.9800000000        9.2722450000       31.2230394069
 Au         1.4600000000        4.2146570000       31.2230394069
 Au        10.2200000000        4.2146570000       31.2230394069
 Au         5.8400000000       11.8010400000       31.2230394069
 Au        14.6000000000       11.8010400000       31.2230394069
 Au         4.3800000000        4.2146570000       31.2230394069
 Au        13.1400000000        4.2146570000       31.2230394069
 Au         8.7600000000       11.8010400000       31.2230394069
 Au        17.5200000000       11.8010400000       31.2230394069
 Au         7.3000000000        4.2146570000       31.2230394069
 Au        16.0599990000        4.2146570000       31.2230394069
 Au        11.6800000000       11.8010400000       31.2230394069
 Au        20.4400010000       11.8010400000       31.2230394069
 Au         2.9200000000        6.7434510000       31.2230394069
 Au        11.6800000000        6.7434510000       31.2230394069
 Au         5.8400000000        6.7434510000       31.2230394069
 Au        14.6000000000        6.7434510000       31.2230394069
 Au         8.7600000000        6.7434510000       31.2230394069
 Au        17.5200000000        6.7434510000       31.2230394069
 Au    0.000000    0.000000    7.152510    R1
Au    8.760000    0.000000    7.152510    R1
Au    4.380000    7.586382    7.152510    R1
Au    13.140000    7.586382    7.152510    R1
Au    2.920000    0.000000    7.152510    R1
Au    11.680000    0.000000    7.152510    R1
Au    7.300000    7.586382    7.152510    R1
Au    16.059999    7.586382    7.152510    R1
Au    5.840000    0.000000    7.152510    R1
Au    14.600000    0.000000    7.152510    R1
Au    10.220000    7.586382    7.152510    R1
Au    18.980000    7.586382    7.152510    R1
Au    1.460000    2.528794    7.152510    R1
Au    10.220000    2.528794    7.152510    R1
Au    5.840000    10.115176    7.152510    R1
Au    14.600000    10.115176    7.152510    R1
Au    4.380000    2.528794    7.152510    R1
Au    13.140000    2.528794    7.152510    R1
Au    8.760000    10.115176    7.152510    R1
Au    17.520000    10.115176    7.152510    R1
Au    7.300000    2.528794    7.152510    R1
Au    16.059999    2.528794    7.152510    R1
Au    11.680000    10.115176    7.152510    R1
Au    20.440001    10.115176    7.152510    R1
Au    2.920000    5.057588    7.152510    R1
Au    11.680000    5.057588    7.152510    R1
Au    5.840000    5.057588    7.152510    R1
Au    14.600000    5.057588    7.152510    R1
Au    8.760000    5.057588    7.152510    R1
Au    17.520000    5.057588    7.152510    R1
Au    1.460000    0.842931    9.536680    R1
Au    10.220000    0.842931    9.536680    R1
Au    5.840000    8.429314    9.536680    R1
Au    14.600000    8.429314    9.536680    R1
Au    4.380000    0.842931    9.536680    R1
Au    13.140000    0.842931    9.536680    R1
Au    8.760000    8.429314    9.536680    R1
Au    17.520000    8.429314    9.536680    R1
Au    7.300000    0.842931    9.536680    R1
Au    16.059999    0.842931    9.536680    R1
Au    11.680000    8.429314    9.536680    R1
Au    20.440001    8.429314    9.536680    R1
Au    2.920000    3.371726    9.536680    R1
Au    11.680000    3.371726    9.536680    R1
Au    7.300000    10.958108    9.536680    R1
Au    16.059999    10.958108    9.536680    R1
Au    5.840000    3.371726    9.536680    R1
Au    14.600000    3.371726    9.536680    R1
Au    10.220000    10.958108    9.536680    R1
Au    18.980000    10.958108    9.536680    R1
Au    8.760000    3.371726    9.536680    R1
Au    17.520000    3.371726    9.536680    R1
Au    13.140000    10.958108    9.536680    R1
Au    21.900000    10.958108    9.536680    R1
Au    4.380000    5.900520    9.536680    R1
Au    13.140000    5.900520    9.536680    R1
Au    7.300000    5.900520    9.536680    R1
Au    16.059999    5.900520    9.536680    R1
Au    10.220000    5.900520    9.536680    R1
Au    18.980000    5.900520    9.536680    R1
Au    0.000000    1.685863    11.920850    R1
Au    8.760000    1.685863    11.920850    R1
Au    4.380000    9.272245    11.920850    R1
Au    13.140000    9.272245    11.920850    R1
Au    2.920000    1.685863    11.920850    R1
Au    11.680000    1.685863    11.920850    R1
Au    7.300000    9.272245    11.920850    R1
Au    16.059999    9.272245    11.920850    R1
Au    5.840000    1.685863    11.920850    R1
Au    14.600000    1.685863    11.920850    R1
Au    10.220000    9.272245    11.920850    R1
Au    18.980000    9.272245    11.920850    R1
Au    1.460000    4.214657    11.920850    R1
Au    10.220000    4.214657    11.920850    R1
Au    5.840000    11.801040    11.920850    R1
Au    14.600000    11.801040    11.920850    R1
Au    4.380000    4.214657    11.920850    R1
Au    13.140000    4.214657    11.920850    R1
Au    8.760000    11.801040    11.920850    R1
Au    17.520000    11.801040    11.920850    R1
Au    7.300000    4.214657    11.920850    R1
Au    16.059999    4.214657    11.920850    R1
Au    11.680000    11.801040    11.920850    R1
Au    20.440001    11.801040    11.920850    R1
Au    2.920000    6.743451    11.920850    R1
Au    11.680000    6.743451    11.920850    R1
Au    5.840000    6.743451    11.920850    R1
Au    14.600000    6.743451    11.920850    R1
Au    8.760000    6.743451    11.920850    R1
Au    17.520000    6.743451    11.920850    R1
Au    0.000000    0.000000    14.305019    R2
Au    8.760000    0.000000    14.305019    R2
Au    4.380000    7.586382    14.305019    R2
Au    13.140000    7.586382    14.305019    R2
Au    2.920000    0.000000    14.305019    R2
Au    11.680000    0.000000    14.305019    R2
Au    7.300000    7.586382    14.305019    R2
Au    16.059999    7.586382    14.305019    R2
Au    5.840000    0.000000    14.305019    R2
Au    14.600000    0.000000    14.305019    R2
Au    10.220000    7.586382    14.305019    R2
Au    18.980000    7.586382    14.305019    R2
Au    1.460000    2.528794    14.305019    R2
Au    10.220000    2.528794    14.305019    R2
Au    5.840000    10.115176    14.305019    R2
Au    14.600000    10.115176    14.305019    R2
Au    4.380000    2.528794    14.305019    R2
Au    13.140000    2.528794    14.305019    R2
Au    8.760000    10.115176    14.305019    R2
Au    17.520000    10.115176    14.305019    R2
Au    7.300000    2.528794    14.305019    R2
Au    16.059999    2.528794    14.305019    R2
Au    11.680000    10.115176    14.305019    R2
Au    20.440001    10.115176    14.305019    R2
Au    2.920000    5.057588    14.305019    R2
Au    11.680000    5.057588    14.305019    R2
Au    5.840000    5.057588    14.305019    R2
Au    14.600000    5.057588    14.305019    R2
Au    8.760000    5.057588    14.305019    R2
Au    17.520000    5.057588    14.305019    R2
Au    1.460000    0.842931    16.689190    R2
Au    10.220000    0.842931    16.689190    R2
Au    5.840000    8.429314    16.689190    R2
Au    14.600000    8.429314    16.689190    R2
Au    4.380000    0.842931    16.689190    R2
Au    13.140000    0.842931    16.689190    R2
Au    8.760000    8.429314    16.689190    R2
Au    17.520000    8.429314    16.689190    R2
Au    7.300000    0.842931    16.689190    R2
Au    16.059999    0.842931    16.689190    R2
Au    11.680000    8.429314    16.689190    R2
Au    20.440001    8.429314    16.689190    R2
Au    2.920000    3.371726    16.689190    R2
Au    11.680000    3.371726    16.689190    R2
Au    7.300000    10.958108    16.689190    R2
Au    16.059999    10.958108    16.689190    R2
Au    5.840000    3.371726    16.689190    R2
Au    14.600000    3.371726    16.689190    R2
Au    10.220000    10.958108    16.689190    R2
Au    18.980000    10.958108    16.689190    R2
Au    8.760000    3.371726    16.689190    R2
Au    17.520000    3.371726    16.689190    R2
Au    13.140000    10.958108    16.689190    R2
Au    21.900000    10.958108    16.689190    R2
Au    4.380000    5.900520    16.689190    R2
Au    13.140000    5.900520    16.689190    R2
Au    7.300000    5.900520    16.689190    R2
Au    16.059999    5.900520    16.689190    R2
Au    10.220000    5.900520    16.689190    R2
Au    18.980000    5.900520    16.689190    R2
Au    0.000000    1.685863    19.073360    R2
Au    8.760000    1.685863    19.073360    R2
Au    4.380000    9.272245    19.073360    R2
Au    13.140000    9.272245    19.073360    R2
Au    2.920000    1.685863    19.073360    R2
Au    11.680000    1.685863    19.073360    R2
Au    7.300000    9.272245    19.073360    R2
Au    16.059999    9.272245    19.073360    R2
Au    5.840000    1.685863    19.073360    R2
Au    14.600000    1.685863    19.073360    R2
Au    10.220000    9.272245    19.073360    R2
Au    18.980000    9.272245    19.073360    R2
Au    1.460000    4.214657    19.073360    R2
Au    10.220000    4.214657    19.073360    R2
Au    5.840000    11.801040    19.073360    R2
Au    14.600000    11.801040    19.073360    R2
Au    4.380000    4.214657    19.073360    R2
Au    13.140000    4.214657    19.073360    R2
Au    8.760000    11.801040    19.073360    R2
Au    17.520000    11.801040    19.073360    R2
Au    7.300000    4.214657    19.073360    R2
Au    16.059999    4.214657    19.073360    R2
Au    11.680000    11.801040    19.073360    R2
Au    20.440001    11.801040    19.073360    R2
Au    2.920000    6.743451    19.073360    R2
Au    11.680000    6.743451    19.073360    R2
Au    5.840000    6.743451    19.073360    R2
Au    14.600000    6.743451    19.073360    R2
Au    8.760000    6.743451    19.073360    R2
Au    17.520000    6.743451    19.073360    R2
Au    0.000000    0.000000    21.457529    R3
Au    8.760000    0.000000    21.457529    R3
Au    4.380000    7.586382    21.457529    R3
Au    13.140000    7.586382    21.457529    R3
Au    2.920000    0.000000    21.457529    R3
Au    11.680000    0.000000    21.457529    R3
Au    7.300000    7.586382    21.457529    R3
Au    16.059999    7.586382    21.457529    R3
Au    5.840000    0.000000    21.457529    R3
Au    14.600000    0.000000    21.457529    R3
Au    10.220000    7.586382    21.457529    R3
Au    18.980000    7.586382    21.457529    R3
Au    1.460000    2.528794    21.457529    R3
Au    10.220000    2.528794    21.457529    R3
Au    5.840000    10.115176    21.457529    R3
Au    14.600000    10.115176    21.457529    R3
Au    4.380000    2.528794    21.457529    R3
Au    13.140000    2.528794    21.457529    R3
Au    8.760000    10.115176    21.457529    R3
Au    17.520000    10.115176    21.457529    R3
Au    7.300000    2.528794    21.457529    R3
Au    16.059999    2.528794    21.457529    R3
Au    11.680000    10.115176    21.457529    R3
Au    20.440001    10.115176    21.457529    R3
Au    2.920000    5.057588    21.457529    R3
Au    11.680000    5.057588    21.457529    R3
Au    5.840000    5.057588    21.457529    R3
Au    14.600000    5.057588    21.457529    R3
Au    8.760000    5.057588    21.457529    R3
Au    17.520000    5.057588    21.457529    R3
Au    1.460000    0.842931    23.841700    R3
Au    10.220000    0.842931    23.841700    R3
Au    5.840000    8.429314    23.841700    R3
Au    14.600000    8.429314    23.841700    R3
Au    4.380000    0.842931    23.841700    R3
Au    13.140000    0.842931    23.841700    R3
Au    8.760000    8.429314    23.841700    R3
Au    17.520000    8.429314    23.841700    R3
Au    7.300000    0.842931    23.841700    R3
Au    16.059999    0.842931    23.841700    R3
Au    11.680000    8.429314    23.841700    R3
Au    20.440001    8.429314    23.841700    R3
Au    2.920000    3.371726    23.841700    R3
Au    11.680000    3.371726    23.841700    R3
Au    7.300000    10.958108    23.841700    R3
Au    16.059999    10.958108    23.841700    R3
Au    5.840000    3.371726    23.841700    R3
Au    14.600000    3.371726    23.841700    R3
Au    10.220000    10.958108    23.841700    R3
Au    18.980000    10.958108    23.841700    R3
Au    8.760000    3.371726    23.841700    R3
Au    17.520000    3.371726    23.841700    R3
Au    13.140000    10.958108    23.841700    R3
Au    21.900000    10.958108    23.841700    R3
Au    4.380000    5.900520    23.841700    R3
Au    13.140000    5.900520    23.841700    R3
Au    7.300000    5.900520    23.841700    R3
Au    16.059999    5.900520    23.841700    R3
Au    10.220000    5.900520    23.841700    R3
Au    18.980000    5.900520    23.841700    R3
Au    0.000000    1.685863    26.225870    R3
Au    8.760000    1.685863    26.225870    R3
Au    4.380000    9.272245    26.225870    R3
Au    13.140000    9.272245    26.225870    R3
Au    2.920000    1.685863    26.225870    R3
Au    11.680000    1.685863    26.225870    R3
Au    7.300000    9.272245    26.225870    R3
Au    16.059999    9.272245    26.225870    R3
Au    5.840000    1.685863    26.225870    R3
Au    14.600000    1.685863    26.225870    R3
Au    10.220000    9.272245    26.225870    R3
Au    18.980000    9.272245    26.225870    R3
Au    1.460000    4.214657    26.225870    R3
Au    10.220000    4.214657    26.225870    R3
Au    5.840000    11.801040    26.225870    R3
Au    14.600000    11.801040    26.225870    R3
Au    4.380000    4.214657    26.225870    R3
Au    13.140000    4.214657    26.225870    R3
Au    8.760000    11.801040    26.225870    R3
Au    17.520000    11.801040    26.225870    R3
Au    7.300000    4.214657    26.225870    R3
Au    16.059999    4.214657    26.225870    R3
Au    11.680000    11.801040    26.225870    R3
Au    20.440001    11.801040    26.225870    R3
Au    2.920000    6.743451    26.225870    R3
Au    11.680000    6.743451    26.225870    R3
Au    5.840000    6.743451    26.225870    R3
Au    14.600000    6.743451    26.225870    R3
Au    8.760000    6.743451    26.225870    R3
Au    17.520000    6.743451    26.225870    R3