      59
 i =       36, E =     -1064.2756853306
 Au         0.0000000000        0.0000000000        0.0000000000
 Au         2.9200000000        0.0000000000        0.0000000000
 Au         5.8400000000        0.0000000000        0.0000000000
 Au         1.4600000000        2.5287941680        0.0000000000
 Au         4.3800000000        2.5287941680        0.0000000000
 Au         7.3000000000        2.5287941680        0.0000000000
 Au         2.9200000000        5.0575883360        0.0000000000
 Au         5.8400000000        5.0575883360        0.0000000000
 Au         8.7600000000        5.0575883360        0.0000000000
 Au         1.4600000000        0.8429312920        2.3841700720
 Au         4.3800000000        0.8429312920        2.3841700720
 Au         7.3000000000        0.8429312920        2.3841700720
 Au         2.9200000000        3.3717254600        2.3841700720
 Au         5.8400000000        3.3717254600        2.3841700720
 Au         8.7600000000        3.3717254600        2.3841700720
 Au         4.3800000000        5.9005196280        2.3841700720
 Au         7.3000000000        5.9005196280        2.3841700720
 Au        10.2200000000        5.9005196280        2.3841700720
 Au         0.0000000000        1.6858628760        4.7683401440
 Au         2.9200000000        1.6858628760        4.7683401440
 Au         5.8400000000        1.6858628760        4.7683401440
 Au         1.4600000000        4.2146570440        4.7683401440
 Au         4.3800000000        4.2146570440        4.7683401440
 Au         7.3000000000        4.2146570440        4.7683401440
 Au         2.9200000000        6.7434512120        4.7683401440
 Au         5.8400000000        6.7434512120        4.7683401440
 Au         8.7600000000        6.7434512120        4.7683401440
  C         4.2936776986        3.4069150435        8.5257058787
  C         4.3776748440        4.7768276443        8.8281718143
  C         4.4043567000        5.1871078432       10.1586877902
  C         4.3516972742        4.2639978139       11.2201225432
  C         4.2141231667        2.4740788032        9.5761758839
  C         4.2466451475        2.9033737117       10.9017035750
  C         4.4053369074        4.7819258929       12.6505212010
  C         3.4750741475        3.5246549882       14.7475219775
  C         3.8741618644        3.7165284217       16.1870363075
  C         4.3204956056        4.9671872021       16.6611429100
  C         4.7247071123        5.2058009933       17.9555765743
  C         4.6976427195        4.1410627989       18.9033320550
  C         3.8419199615        2.6946457959       17.1550249939
  C         4.2343267051        2.8671936607       18.4676298538
  F         3.3958610241        1.4581815547       16.7796171839
  F         4.3430244234        6.0021521263       15.7665903298
  H         4.4344435081        5.5081701083        8.0215519148
  H         4.4801089091        6.2540736608       10.3802499179
  H         5.0610150487        6.1965823999       18.2541293339
  H         4.1890029526        2.0331956685       19.1649855965
  S         4.3424881843        2.7552983320        6.8760919496
  H         4.1434053090        1.4102306560        9.3482278478
  H         4.2131329010        2.1633672414       11.7016143169
  S         5.2063918905        4.3867170367       20.5178022631
  C         4.6234764011        3.7678077803       13.7625320896
  C         5.7909814661        3.1254729289       13.9024187374
  H         2.6492132748        4.2163570335       14.5182966548
  H         3.0747121267        2.5083535439       14.6211059990
  H         3.4783113427        5.3451001930       12.8484795567
  H         5.2098691664        5.5342272291       12.7040319684
  H         5.9654164218        2.4182322232       14.7144968991
  H         6.6160775322        3.2885607190       13.2077433734
 Au         0.0000000000        0.0000000000        0.0000000000
 Au         2.9200000000        0.0000000000        0.0000000000
 Au         5.8400000000        0.0000000000        0.0000000000
 Au         1.4600000000        2.5287941680        0.0000000000
 Au         4.3800000000        2.5287941680        0.0000000000
 Au         7.3000000000        2.5287941680        0.0000000000
 Au         2.9200000000        5.0575883360        0.0000000000
 Au         5.8400000000        5.0575883360        0.0000000000
 Au         8.7600000000        5.0575883360        0.0000000000
 Au         1.4600000000        0.8429312920        2.3841700720
 Au         4.3800000000        0.8429312920        2.3841700720
 Au         7.3000000000        0.8429312920        2.3841700720
 Au         2.9200000000        3.3717254600        2.3841700720
 Au         5.8400000000        3.3717254600        2.3841700720
 Au         8.7600000000        3.3717254600        2.3841700720
 Au         4.3800000000        5.9005196280        2.3841700720
 Au         7.3000000000        5.9005196280        2.3841700720
 Au        10.2200000000        5.9005196280        2.3841700720
 Au         0.0000000000        1.6858628760        4.7683401440
 Au         2.9200000000        1.6858628760        4.7683401440
 Au         5.8400000000        1.6858628760        4.7683401440
 Au         1.4600000000        4.2146570440        4.7683401440
 Au         4.3800000000        4.2146570440        4.7683401440
 Au         7.3000000000        4.2146570440        4.7683401440
 Au         2.9200000000        6.7434512120        4.7683401440
 Au         5.8400000000        6.7434512120        4.7683401440
 Au         8.7600000000        6.7434512120        4.7683401440