      58
 i =      256, E =      -225.1346866722
  C         1.3637117175        3.7785387830       -2.5303048075
  C        -0.0389637791        3.7510733312       -2.4777026715
  C        -0.6827016971        2.7253582730       -1.8000189657
  C         0.0396773642        1.6824764445       -1.1783443436
  C         2.1010910732        2.7206429342       -1.9743215087
  C         1.4434888123        1.6796836313       -1.3224655246
  C        -0.6676689895        0.6773062754       -0.3497075744
  C        -2.0659195280        0.5301489836       -0.4251875635
  C        -2.7598115072       -0.3219376988        0.4268037394
  C        -2.0778867467       -1.1027808829        1.3739521194
  C         0.0138227791       -0.1010078904        0.6071969735
  C        -0.6800256576       -0.9736964210        1.4453941685
  C        -3.0305889308       -3.5027224541        1.8919698412
  C        -1.4699394869       -5.6784030179        1.5858246856
  C        -2.1157460559       -6.7569870587        2.2224943758
  C        -1.9072182861       -8.0737735736        1.8187994043
  C        -1.0394464978       -8.4178432025        0.7460041738
  C        -0.5555463990       -6.0115011344        0.5645796846
  C        -0.3472475235       -7.3269071016        0.1534111540
  N        -3.5476247972       -3.5029952018        0.4841968314
  C        -4.6941558911       -2.8334841510        0.0562554608
  C        -4.8488069350       -3.1021815690       -1.2703822856
  N        -3.7919510201       -3.9271232576       -1.6435583301
  C        -3.0148636940       -4.1508863830       -0.5616202735
  H        -0.6164110025        4.5602303462       -2.9255991648
  H        -1.7669009860        2.7670499381       -1.7138026534
  S         2.1770181283        5.2397830196       -3.1192741725
  H         3.1910083814        2.7228050381       -2.0094546212
  H         2.0579459218        0.8855370689       -0.8940698003
  H         1.0930606019       -0.0045330205        0.7301514797
  H        -2.6459156100        1.0962498001       -1.1527187177
  H        -3.8534156785       -0.3344390093        0.3659187619
  H        -0.1196571629       -1.5354690246        2.1951518974
  H         0.0214651276       -5.2134380584        0.0834842562
  H        -2.7938252475       -6.5689476230        3.0558359312
  H        -2.4264899526       -8.8820293175        2.3360466375
  S        -0.8659833514      -10.0547350029        0.1759902792
  H         0.3626997903       -7.5394050801       -0.6475306117
  H        -5.5952103851       -2.7601826632       -1.9753151845
  H        -5.2926089723       -2.1811875803        0.6917276266
  H        -2.1573249463       -4.8133077948       -0.5349523621
  C        -2.8535706969       -1.9982548801        2.3134949548
  H        -3.8543835650       -1.5699755096        2.4714057769
  H        -2.3594585892       -2.0084000835        3.2939801947
  C        -1.6420267568       -4.2277974418        1.9949670495
  H        -1.3721518562       -4.1063626448        3.0568170772
  H        -0.9183227149       -3.6201503295        1.4304414753
  C        -5.9418428618       -5.7162759142        3.1224346727
  C        -4.0778957181       -4.1830373064        2.7878217562
  C        -4.0398550341       -3.9783558804        4.1770753632
  C        -5.8980431286       -5.4985773953        4.4995753875
  C        -4.9393684180       -4.6284331975        5.0234851766
  H        -6.6029910247       -6.0045867763        5.1598676914
  H        -4.8886584011       -4.4503033806        6.0982164514
  H        -3.2995701049       -3.3114174700        4.6179654275
  C        -5.0391204585       -5.0672136582        2.2765657688
  H        -5.0858994134       -5.2777504731        1.2094421375
  H        -6.6756014820       -6.4014359050        2.6968136597
