     172
 i =        3, E =     -3405.6217213800
 Au         0.0000000000        0.0000000000        0.0000000000
 Au         8.7600000000        0.0000000000        0.0000000000
 Au         4.3800000000        7.5863820000        0.0000000000
 Au        13.1400000000        7.5863820000        0.0000000000
 Au         2.9200000000        0.0000000000        0.0000000000
 Au        11.6800000000        0.0000000000        0.0000000000
 Au         7.3000000000        7.5863820000        0.0000000000
 Au        16.0599990000        7.5863820000        0.0000000000
 Au         5.8400000000        0.0000000000        0.0000000000
 Au        14.6000000000        0.0000000000        0.0000000000
 Au        10.2200000000        7.5863820000        0.0000000000
 Au        18.9800000000        7.5863820000        0.0000000000
 Au         1.4600000000        2.5287940000        0.0000000000
 Au        10.2200000000        2.5287940000        0.0000000000
 Au         5.8400000000       10.1151760000        0.0000000000
 Au        14.6000000000       10.1151760000        0.0000000000
 Au         4.3800000000        2.5287940000        0.0000000000
 Au        13.1400000000        2.5287940000        0.0000000000
 Au         8.7600000000       10.1151760000        0.0000000000
 Au        17.5200000000       10.1151760000        0.0000000000
 Au         7.3000000000        2.5287940000        0.0000000000
 Au        16.0599990000        2.5287940000        0.0000000000
 Au        11.6800000000       10.1151760000        0.0000000000
 Au        20.4400010000       10.1151760000        0.0000000000
 Au         2.9200000000        5.0575880000        0.0000000000
 Au        11.6800000000        5.0575880000        0.0000000000
 Au         5.8400000000        5.0575880000        0.0000000000
 Au        14.6000000000        5.0575880000        0.0000000000
 Au         8.7600000000        5.0575880000        0.0000000000
 Au        17.5200000000        5.0575880000        0.0000000000
 Au         1.4600000000        0.8429310000        2.3841700000
 Au        10.2200000000        0.8429310000        2.3841700000
 Au         5.8400000000        8.4293140000        2.3841700000
 Au        14.6000000000        8.4293140000        2.3841700000
 Au         4.3800000000        0.8429310000        2.3841700000
 Au        13.1400000000        0.8429310000        2.3841700000
 Au         8.7600000000        8.4293140000        2.3841700000
 Au        17.5200000000        8.4293140000        2.3841700000
 Au         7.3000000000        0.8429310000        2.3841700000
 Au        16.0599990000        0.8429310000        2.3841700000
 Au        11.6800000000        8.4293140000        2.3841700000
 Au        20.4400010000        8.4293140000        2.3841700000
 Au         2.9200000000        3.3717260000        2.3841700000
 Au        11.6800000000        3.3717260000        2.3841700000
 Au         7.3000000000       10.9581080000        2.3841700000
 Au        16.0599990000       10.9581080000        2.3841700000
 Au         5.8400000000        3.3717260000        2.3841700000
 Au        14.6000000000        3.3717260000        2.3841700000
 Au        10.2200000000       10.9581080000        2.3841700000
 Au        18.9800000000       10.9581080000        2.3841700000
 Au         8.7600000000        3.3717260000        2.3841700000
 Au        17.5200000000        3.3717260000        2.3841700000
 Au        13.1400000000       10.9581080000        2.3841700000
 Au        21.9000000000       10.9581080000        2.3841700000
 Au         4.3800000000        5.9005200000        2.3841700000
 Au        13.1400000000        5.9005200000        2.3841700000
 Au         7.3000000000        5.9005200000        2.3841700000
 Au        16.0599990000        5.9005200000        2.3841700000
 Au        10.2200000000        5.9005200000        2.3841700000
 Au        18.9800000000        5.9005200000        2.3841700000
 Au         0.0000000000        1.6858630000        4.7683400000
 Au         8.7600000000        1.6858630000        4.7683400000
 Au         4.3800000000        9.2722450000        4.7683400000
 Au        13.1400000000        9.2722450000        4.7683400000
 Au         2.9200000000        1.6858630000        4.7683400000
 Au        11.6800000000        1.6858630000        4.7683400000
 Au         7.3000000000        9.2722450000        4.7683400000
 Au        16.0599990000        9.2722450000        4.7683400000
 Au         5.8400000000        1.6858630000        4.7683400000
 Au        14.6000000000        1.6858630000        4.7683400000
 Au        10.2200000000        9.2722450000        4.7683400000
 Au        18.9800000000        9.2722450000        4.7683400000
 Au         1.4600000000        4.2146570000        4.7683400000
 Au        10.2200000000        4.2146570000        4.7683400000
 Au         5.8400000000       11.8010400000        4.7683400000
 Au        14.6000000000       11.8010400000        4.7683400000
 Au         4.3800000000        4.2146570000        4.7683400000
 Au        13.1400000000        4.2146570000        4.7683400000
 Au         8.7600000000       11.8010400000        4.7683400000
 Au        17.5200000000       11.8010400000        4.7683400000
 Au         7.3000000000        4.2146570000        4.7683400000
 Au        16.0599990000        4.2146570000        4.7683400000
 Au        11.6800000000       11.8010400000        4.7683400000
 Au        20.4400010000       11.8010400000        4.7683400000
 Au         2.9200000000        6.7434510000        4.7683400000
 Au        11.6800000000        6.7434510000        4.7683400000
 Au         5.8400000000        6.7434510000        4.7683400000
 Au        14.6000000000        6.7434510000        4.7683400000
 Au         8.7600000000        6.7434510000        4.7683400000
 Au        17.5200000000        6.7434510000        4.7683400000
  H        11.4760775723        5.5495051494       11.1836975811
  C        11.1570200002        6.1578235073       10.3355700809
  C        11.2936864407        7.5531094213       10.3978926316
  C        10.8875522164        8.3022151417        9.2796361330
  H        10.9991721771        9.3882800095        9.2812406750
  C        10.3104496997        7.6922318733        8.1692124575
  H         9.9618928181        8.2994884467        7.3319094475
  C        10.1413676728        6.2980418817        8.1384037272
  C        10.6007759074        5.5295380005        9.2231279436
  H        10.4888487997        4.4452596373        9.2054643560
  C        11.8041112650        8.2245132029       11.6515215961
  C        10.7977843071        9.2292170035       12.2670415413
  H        12.7351199277        8.7744999463       11.4327604304
  H        12.0707102468        7.4537584901       12.3890620633
  C        11.2403710751        9.7632078592       13.6411298452
  C         9.4007784300        8.6505782532       12.5418240171
  C         8.2321281928        8.4645182579       20.2903541436
  C         7.8274216313        7.1400383278       20.7203372780
  C         9.0176196341        6.4032343779       21.0950577817
  C        10.1678242366        7.2726758076       20.8995051269
  C         9.6805897156        8.5454442189       20.3947298279
  C        10.4144240893        9.2368984771       19.4263820000
  C        11.6671388993        8.6975198193       18.9322741373
  C        12.1400815257        7.4738671123       19.4243240671
  C        11.3700388199        6.7472306208       20.4206763814
  C        11.4726573612        5.3281302140       20.1160926054
  C        10.3675970138        4.4923817733       20.3006554545
  C         9.1164719844        5.0380084993       20.8017429137
  C         8.0275358083        4.3594889996       20.1278168190
  C         6.8745830312        5.0679152236       19.7689975356
  C         6.7715683719        6.4823597645       20.0672100354
  C         6.0877674057        7.1289209714       18.9639330961
  C         5.7708910630        6.1094980222       17.9759685952
  C         6.2512498898        4.8319416238       18.4757299638
  C         6.8001670069        3.8991636591       17.5925743317
  C         7.9982886445        3.1627922289       17.9658301918
  C         8.6001347392        3.3912003316       19.2065958748
  C        10.0471432268        3.4763677975       19.3121980868
  C        10.8396983440        3.3403596107       18.1686871404
  C        11.9847773543        4.2134749141       17.9729889207
  C        12.3015856533        5.1860821963       18.9321406963
  C        12.7142046095        6.5091580282       18.5065945297
  C        12.7927803762        6.8100820027       17.1408955023
  C        12.3020439326        8.0786788001       16.6326300982
  C        11.7609815719        9.0050205170       17.5164461015
  C        10.5441179225        9.7291769084       17.1283898785
  C         9.9651036640        9.5195008274       15.8854685130
  C        10.6656187466        8.7878274577       14.7311089490
  C        11.6957930221        7.8562295653       15.3245992712
  C        11.7605788064        6.4907775330       15.0553186044
  C        12.4531816836        5.8093601625       16.1590574239
  C        12.0614456683        4.5398816141       16.5652274732
  C        10.9587844354        3.8532473183       15.8828367623
  C        10.2144420780        3.1105801448       16.8771774746
  C         8.8188706171        3.0159807949       16.7764492601
  C         8.1322027218        3.6536667125       15.6703155360
  C         6.8861240501        4.1995941511       16.1724664540
  C         6.4301094857        5.4341537328       15.6915184916
  C         5.8661707646        6.4031663988       16.6126264662
  C         6.2896921293        7.7265511031       16.1870932286
  C         7.1104475906        7.5886519270       15.0065407226
  C         7.1924004296        6.1577169086       14.6901909809
  C         8.3912468880        5.6416611104       14.2117956225
  C         8.8650461023        4.3625803658       14.7093668169
  C        10.2992735124        4.4670308723       14.8250900687
  C        10.6806754760        5.8178296570       14.3861359841
  C         9.5399858170        6.5132276853       13.9902547307
  C         9.4289396314        8.0189167086       13.9744153420
  C         8.2032276377        8.4166071676       14.8030703257
  C         8.5398623776        9.3935589813       15.7946138895
  C         7.7237751902        9.5646469399       16.9384599052
  C         6.5758746231        8.7136162666       17.1372325882
  C         6.4770272505        8.4078240672       18.5515513819
  C         7.5703284419        9.0890563021       19.2282130690
  C         8.3311989253        9.8072940538       18.2234483468
  C         9.7268615944        9.8675819836       18.3122895151
  H         9.0755289416        7.9236434811       11.7869612614
  H         8.6644841553        9.4679996983       12.5414578475
  S         9.1808250142        5.4489584961        6.9126773648
  H        10.8059153341       10.7603833492       13.8060049823
  H        12.3301221552        9.8660617543       13.7329919420
  H        10.6991706610       10.0736183592       11.5665466133
  Au    0.000000    0.000000    0.000000    R0
Au    8.760000    0.000000    0.000000    R0
Au    4.380000    7.586382    0.000000    R0
Au    13.140000    7.586382    0.000000    R0
Au    2.920000    0.000000    0.000000    R0
Au    11.680000    0.000000    0.000000    R0
Au    7.300000    7.586382    0.000000    R0
Au    16.059999    7.586382    0.000000    R0
Au    5.840000    0.000000    0.000000    R0
Au    14.600000    0.000000    0.000000    R0
Au    10.220000    7.586382    0.000000    R0
Au    18.980000    7.586382    0.000000    R0
Au    1.460000    2.528794    0.000000    R0
Au    10.220000    2.528794    0.000000    R0
Au    5.840000    10.115176    0.000000    R0
Au    14.600000    10.115176    0.000000    R0
Au    4.380000    2.528794    0.000000    R0
Au    13.140000    2.528794    0.000000    R0
Au    8.760000    10.115176    0.000000    R0
Au    17.520000    10.115176    0.000000    R0
Au    7.300000    2.528794    0.000000    R0
Au    16.059999    2.528794    0.000000    R0
Au    11.680000    10.115176    0.000000    R0
Au    20.440001    10.115176    0.000000    R0
Au    2.920000    5.057588    0.000000    R0
Au    11.680000    5.057588    0.000000    R0
Au    5.840000    5.057588    0.000000    R0
Au    14.600000    5.057588    0.000000    R0
Au    8.760000    5.057588    0.000000    R0
Au    17.520000    5.057588    0.000000    R0
Au    1.460000    0.842931    2.384170    R0
Au    10.220000    0.842931    2.384170    R0
Au    5.840000    8.429314    2.384170    R0
Au    14.600000    8.429314    2.384170    R0
Au    4.380000    0.842931    2.384170    R0
Au    13.140000    0.842931    2.384170    R0
Au    8.760000    8.429314    2.384170    R0
Au    17.520000    8.429314    2.384170    R0
Au    7.300000    0.842931    2.384170    R0
Au    16.059999    0.842931    2.384170    R0
Au    11.680000    8.429314    2.384170    R0
Au    20.440001    8.429314    2.384170    R0
Au    2.920000    3.371726    2.384170    R0
Au    11.680000    3.371726    2.384170    R0
Au    7.300000    10.958108    2.384170    R0
Au    16.059999    10.958108    2.384170    R0
Au    5.840000    3.371726    2.384170    R0
Au    14.600000    3.371726    2.384170    R0
Au    10.220000    10.958108    2.384170    R0
Au    18.980000    10.958108    2.384170    R0
Au    8.760000    3.371726    2.384170    R0
Au    17.520000    3.371726    2.384170    R0
Au    13.140000    10.958108    2.384170    R0
Au    21.900000    10.958108    2.384170    R0
Au    4.380000    5.900520    2.384170    R0
Au    13.140000    5.900520    2.384170    R0
Au    7.300000    5.900520    2.384170    R0
Au    16.059999    5.900520    2.384170    R0
Au    10.220000    5.900520    2.384170    R0
Au    18.980000    5.900520    2.384170    R0
Au    0.000000    1.685863    4.768340    R0
Au    8.760000    1.685863    4.768340    R0
Au    4.380000    9.272245    4.768340    R0
Au    13.140000    9.272245    4.768340    R0
Au    2.920000    1.685863    4.768340    R0
Au    11.680000    1.685863    4.768340    R0
Au    7.300000    9.272245    4.768340    R0
Au    16.059999    9.272245    4.768340    R0
Au    5.840000    1.685863    4.768340    R0
Au    14.600000    1.685863    4.768340    R0
Au    10.220000    9.272245    4.768340    R0
Au    18.980000    9.272245    4.768340    R0
Au    1.460000    4.214657    4.768340    R0
Au    10.220000    4.214657    4.768340    R0
Au    5.840000    11.801040    4.768340    R0
Au    14.600000    11.801040    4.768340    R0
Au    4.380000    4.214657    4.768340    R0
Au    13.140000    4.214657    4.768340    R0
Au    8.760000    11.801040    4.768340    R0
Au    17.520000    11.801040    4.768340    R0
Au    7.300000    4.214657    4.768340    R0
Au    16.059999    4.214657    4.768340    R0
Au    11.680000    11.801040    4.768340    R0
Au    20.440001    11.801040    4.768340    R0
Au    2.920000    6.743451    4.768340    R0
Au    11.680000    6.743451    4.768340    R0
Au    5.840000    6.743451    4.768340    R0
Au    14.600000    6.743451    4.768340    R0
Au    8.760000    6.743451    4.768340    R0
Au    17.520000    6.743451    4.768340    R0
Au    0.000000    0.000000    7.152510    R1
Au    8.760000    0.000000    7.152510    R1
Au    4.380000    7.586382    7.152510    R1
Au    13.140000    7.586382    7.152510    R1
Au    2.920000    0.000000    7.152510    R1
Au    11.680000    0.000000    7.152510    R1
Au    7.300000    7.586382    7.152510    R1
Au    16.059999    7.586382    7.152510    R1
Au    5.840000    0.000000    7.152510    R1
Au    14.600000    0.000000    7.152510    R1
Au    10.220000    7.586382    7.152510    R1
Au    18.980000    7.586382    7.152510    R1
Au    1.460000    2.528794    7.152510    R1
Au    10.220000    2.528794    7.152510    R1
Au    5.840000    10.115176    7.152510    R1
Au    14.600000    10.115176    7.152510    R1
Au    4.380000    2.528794    7.152510    R1
Au    13.140000    2.528794    7.152510    R1
Au    8.760000    10.115176    7.152510    R1
Au    17.520000    10.115176    7.152510    R1
Au    7.300000    2.528794    7.152510    R1
Au    16.059999    2.528794    7.152510    R1
Au    11.680000    10.115176    7.152510    R1
Au    20.440001    10.115176    7.152510    R1
Au    2.920000    5.057588    7.152510    R1
Au    11.680000    5.057588    7.152510    R1
Au    5.840000    5.057588    7.152510    R1
Au    14.600000    5.057588    7.152510    R1
Au    8.760000    5.057588    7.152510    R1
Au    17.520000    5.057588    7.152510    R1
Au    1.460000    0.842931    9.536680    R1
Au    10.220000    0.842931    9.536680    R1
Au    5.840000    8.429314    9.536680    R1
Au    14.600000    8.429314    9.536680    R1
Au    4.380000    0.842931    9.536680    R1
Au    13.140000    0.842931    9.536680    R1
Au    8.760000    8.429314    9.536680    R1
Au    17.520000    8.429314    9.536680    R1
Au    7.300000    0.842931    9.536680    R1
Au    16.059999    0.842931    9.536680    R1
Au    11.680000    8.429314    9.536680    R1
Au    20.440001    8.429314    9.536680    R1
Au    2.920000    3.371726    9.536680    R1
Au    11.680000    3.371726    9.536680    R1
Au    7.300000    10.958108    9.536680    R1
Au    16.059999    10.958108    9.536680    R1
Au    5.840000    3.371726    9.536680    R1
Au    14.600000    3.371726    9.536680    R1
Au    10.220000    10.958108    9.536680    R1
Au    18.980000    10.958108    9.536680    R1
Au    8.760000    3.371726    9.536680    R1
Au    17.520000    3.371726    9.536680    R1
Au    13.140000    10.958108    9.536680    R1
Au    21.900000    10.958108    9.536680    R1
Au    4.380000    5.900520    9.536680    R1
Au    13.140000    5.900520    9.536680    R1
Au    7.300000    5.900520    9.536680    R1
Au    16.059999    5.900520    9.536680    R1
Au    10.220000    5.900520    9.536680    R1
Au    18.980000    5.900520    9.536680    R1
Au    0.000000    1.685863    11.920850    R1
Au    8.760000    1.685863    11.920850    R1
Au    4.380000    9.272245    11.920850    R1
Au    13.140000    9.272245    11.920850    R1
Au    2.920000    1.685863    11.920850    R1
Au    11.680000    1.685863    11.920850    R1
Au    7.300000    9.272245    11.920850    R1
Au    16.059999    9.272245    11.920850    R1
Au    5.840000    1.685863    11.920850    R1
Au    14.600000    1.685863    11.920850    R1
Au    10.220000    9.272245    11.920850    R1
Au    18.980000    9.272245    11.920850    R1
Au    1.460000    4.214657    11.920850    R1
Au    10.220000    4.214657    11.920850    R1
Au    5.840000    11.801040    11.920850    R1
Au    14.600000    11.801040    11.920850    R1
Au    4.380000    4.214657    11.920850    R1
Au    13.140000    4.214657    11.920850    R1
Au    8.760000    11.801040    11.920850    R1
Au    17.520000    11.801040    11.920850    R1
Au    7.300000    4.214657    11.920850    R1
Au    16.059999    4.214657    11.920850    R1
Au    11.680000    11.801040    11.920850    R1
Au    20.440001    11.801040    11.920850    R1
Au    2.920000    6.743451    11.920850    R1
Au    11.680000    6.743451    11.920850    R1
Au    5.840000    6.743451    11.920850    R1
Au    14.600000    6.743451    11.920850    R1
Au    8.760000    6.743451    11.920850    R1
Au    17.520000    6.743451    11.920850    R1
Au    0.000000    0.000000    14.305019    R2
Au    8.760000    0.000000    14.305019    R2
Au    4.380000    7.586382    14.305019    R2
Au    13.140000    7.586382    14.305019    R2
Au    2.920000    0.000000    14.305019    R2
Au    11.680000    0.000000    14.305019    R2
Au    7.300000    7.586382    14.305019    R2
Au    16.059999    7.586382    14.305019    R2
Au    5.840000    0.000000    14.305019    R2
Au    14.600000    0.000000    14.305019    R2
Au    10.220000    7.586382    14.305019    R2
Au    18.980000    7.586382    14.305019    R2
Au    1.460000    2.528794    14.305019    R2
Au    10.220000    2.528794    14.305019    R2
Au    5.840000    10.115176    14.305019    R2
Au    14.600000    10.115176    14.305019    R2
Au    4.380000    2.528794    14.305019    R2
Au    13.140000    2.528794    14.305019    R2
Au    8.760000    10.115176    14.305019    R2
Au    17.520000    10.115176    14.305019    R2
Au    7.300000    2.528794    14.305019    R2
Au    16.059999    2.528794    14.305019    R2
Au    11.680000    10.115176    14.305019    R2
Au    20.440001    10.115176    14.305019    R2
Au    2.920000    5.057588    14.305019    R2
Au    11.680000    5.057588    14.305019    R2
Au    5.840000    5.057588    14.305019    R2
Au    14.600000    5.057588    14.305019    R2
Au    8.760000    5.057588    14.305019    R2
Au    17.520000    5.057588    14.305019    R2
Au    1.460000    0.842931    16.689190    R2
Au    10.220000    0.842931    16.689190    R2
Au    5.840000    8.429314    16.689190    R2
Au    14.600000    8.429314    16.689190    R2
Au    4.380000    0.842931    16.689190    R2
Au    13.140000    0.842931    16.689190    R2
Au    8.760000    8.429314    16.689190    R2
Au    17.520000    8.429314    16.689190    R2
Au    7.300000    0.842931    16.689190    R2
Au    16.059999    0.842931    16.689190    R2
Au    11.680000    8.429314    16.689190    R2
Au    20.440001    8.429314    16.689190    R2
Au    2.920000    3.371726    16.689190    R2
Au    11.680000    3.371726    16.689190    R2
Au    7.300000    10.958108    16.689190    R2
Au    16.059999    10.958108    16.689190    R2
Au    5.840000    3.371726    16.689190    R2
Au    14.600000    3.371726    16.689190    R2
Au    10.220000    10.958108    16.689190    R2
Au    18.980000    10.958108    16.689190    R2
Au    8.760000    3.371726    16.689190    R2
Au    17.520000    3.371726    16.689190    R2
Au    13.140000    10.958108    16.689190    R2
Au    21.900000    10.958108    16.689190    R2
Au    4.380000    5.900520    16.689190    R2
Au    13.140000    5.900520    16.689190    R2
Au    7.300000    5.900520    16.689190    R2
Au    16.059999    5.900520    16.689190    R2
Au    10.220000    5.900520    16.689190    R2
Au    18.980000    5.900520    16.689190    R2
Au    0.000000    1.685863    19.073360    R2
Au    8.760000    1.685863    19.073360    R2
Au    4.380000    9.272245    19.073360    R2
Au    13.140000    9.272245    19.073360    R2
Au    2.920000    1.685863    19.073360    R2
Au    11.680000    1.685863    19.073360    R2
Au    7.300000    9.272245    19.073360    R2
Au    16.059999    9.272245    19.073360    R2
Au    5.840000    1.685863    19.073360    R2
Au    14.600000    1.685863    19.073360    R2
Au    10.220000    9.272245    19.073360    R2
Au    18.980000    9.272245    19.073360    R2
Au    1.460000    4.214657    19.073360    R2
Au    10.220000    4.214657    19.073360    R2
Au    5.840000    11.801040    19.073360    R2
Au    14.600000    11.801040    19.073360    R2
Au    4.380000    4.214657    19.073360    R2
Au    13.140000    4.214657    19.073360    R2
Au    8.760000    11.801040    19.073360    R2
Au    17.520000    11.801040    19.073360    R2
Au    7.300000    4.214657    19.073360    R2
Au    16.059999    4.214657    19.073360    R2
Au    11.680000    11.801040    19.073360    R2
Au    20.440001    11.801040    19.073360    R2
Au    2.920000    6.743451    19.073360    R2
Au    11.680000    6.743451    19.073360    R2
Au    5.840000    6.743451    19.073360    R2
Au    14.600000    6.743451    19.073360    R2
Au    8.760000    6.743451    19.073360    R2
Au    17.520000    6.743451    19.073360    R2
Au    0.000000    0.000000    21.457529    R3
Au    8.760000    0.000000    21.457529    R3
Au    4.380000    7.586382    21.457529    R3
Au    13.140000    7.586382    21.457529    R3
Au    2.920000    0.000000    21.457529    R3
Au    11.680000    0.000000    21.457529    R3
Au    7.300000    7.586382    21.457529    R3
Au    16.059999    7.586382    21.457529    R3
Au    5.840000    0.000000    21.457529    R3
Au    14.600000    0.000000    21.457529    R3
Au    10.220000    7.586382    21.457529    R3
Au    18.980000    7.586382    21.457529    R3
Au    1.460000    2.528794    21.457529    R3
Au    10.220000    2.528794    21.457529    R3
Au    5.840000    10.115176    21.457529    R3
Au    14.600000    10.115176    21.457529    R3
Au    4.380000    2.528794    21.457529    R3
Au    13.140000    2.528794    21.457529    R3
Au    8.760000    10.115176    21.457529    R3
Au    17.520000    10.115176    21.457529    R3
Au    7.300000    2.528794    21.457529    R3
Au    16.059999    2.528794    21.457529    R3
Au    11.680000    10.115176    21.457529    R3
Au    20.440001    10.115176    21.457529    R3
Au    2.920000    5.057588    21.457529    R3
Au    11.680000    5.057588    21.457529    R3
Au    5.840000    5.057588    21.457529    R3
Au    14.600000    5.057588    21.457529    R3
Au    8.760000    5.057588    21.457529    R3
Au    17.520000    5.057588    21.457529    R3
Au    1.460000    0.842931    23.841700    R3
Au    10.220000    0.842931    23.841700    R3
Au    5.840000    8.429314    23.841700    R3
Au    14.600000    8.429314    23.841700    R3
Au    4.380000    0.842931    23.841700    R3
Au    13.140000    0.842931    23.841700    R3
Au    8.760000    8.429314    23.841700    R3
Au    17.520000    8.429314    23.841700    R3
Au    7.300000    0.842931    23.841700    R3
Au    16.059999    0.842931    23.841700    R3
Au    11.680000    8.429314    23.841700    R3
Au    20.440001    8.429314    23.841700    R3
Au    2.920000    3.371726    23.841700    R3
Au    11.680000    3.371726    23.841700    R3
Au    7.300000    10.958108    23.841700    R3
Au    16.059999    10.958108    23.841700    R3
Au    5.840000    3.371726    23.841700    R3
Au    14.600000    3.371726    23.841700    R3
Au    10.220000    10.958108    23.841700    R3
Au    18.980000    10.958108    23.841700    R3
Au    8.760000    3.371726    23.841700    R3
Au    17.520000    3.371726    23.841700    R3
Au    13.140000    10.958108    23.841700    R3
Au    21.900000    10.958108    23.841700    R3
Au    4.380000    5.900520    23.841700    R3
Au    13.140000    5.900520    23.841700    R3
Au    7.300000    5.900520    23.841700    R3
Au    16.059999    5.900520    23.841700    R3
Au    10.220000    5.900520    23.841700    R3
Au    18.980000    5.900520    23.841700    R3
Au    0.000000    1.685863    26.225870    R3
Au    8.760000    1.685863    26.225870    R3
Au    4.380000    9.272245    26.225870    R3
Au    13.140000    9.272245    26.225870    R3
Au    2.920000    1.685863    26.225870    R3
Au    11.680000    1.685863    26.225870    R3
Au    7.300000    9.272245    26.225870    R3
Au    16.059999    9.272245    26.225870    R3
Au    5.840000    1.685863    26.225870    R3
Au    14.600000    1.685863    26.225870    R3
Au    10.220000    9.272245    26.225870    R3
Au    18.980000    9.272245    26.225870    R3
Au    1.460000    4.214657    26.225870    R3
Au    10.220000    4.214657    26.225870    R3
Au    5.840000    11.801040    26.225870    R3
Au    14.600000    11.801040    26.225870    R3
Au    4.380000    4.214657    26.225870    R3
Au    13.140000    4.214657    26.225870    R3
Au    8.760000    11.801040    26.225870    R3
Au    17.520000    11.801040    26.225870    R3
Au    7.300000    4.214657    26.225870    R3
Au    16.059999    4.214657    26.225870    R3
Au    11.680000    11.801040    26.225870    R3
Au    20.440001    11.801040    26.225870    R3
Au    2.920000    6.743451    26.225870    R3
Au    11.680000    6.743451    26.225870    R3
Au    5.840000    6.743451    26.225870    R3
Au    14.600000    6.743451    26.225870    R3
Au    8.760000    6.743451    26.225870    R3
Au    17.520000    6.743451    26.225870    R3