     263
 i =       54, E =     -6430.5596227203
 Au         0.0000000000        0.0000000000        0.0000000000
 Au         8.7600000000        0.0000000000        0.0000000000
 Au         4.3800000000        7.5863820000        0.0000000000
 Au        13.1400000000        7.5863820000        0.0000000000
 Au         2.9200000000        0.0000000000        0.0000000000
 Au        11.6800000000        0.0000000000        0.0000000000
 Au         7.3000000000        7.5863820000        0.0000000000
 Au        16.0599990000        7.5863820000        0.0000000000
 Au         5.8400000000        0.0000000000        0.0000000000
 Au        14.6000000000        0.0000000000        0.0000000000
 Au        10.2200000000        7.5863820000        0.0000000000
 Au        18.9800000000        7.5863820000        0.0000000000
 Au         1.4600000000        2.5287940000        0.0000000000
 Au        10.2200000000        2.5287940000        0.0000000000
 Au         5.8400000000       10.1151760000        0.0000000000
 Au        14.6000000000       10.1151760000        0.0000000000
 Au         4.3800000000        2.5287940000        0.0000000000
 Au        13.1400000000        2.5287940000        0.0000000000
 Au         8.7600000000       10.1151760000        0.0000000000
 Au        17.5200000000       10.1151760000        0.0000000000
 Au         7.3000000000        2.5287940000        0.0000000000
 Au        16.0599990000        2.5287940000        0.0000000000
 Au        11.6800000000       10.1151760000        0.0000000000
 Au        20.4400010000       10.1151760000        0.0000000000
 Au         2.9200000000        5.0575880000        0.0000000000
 Au        11.6800000000        5.0575880000        0.0000000000
 Au         5.8400000000        5.0575880000        0.0000000000
 Au        14.6000000000        5.0575880000        0.0000000000
 Au         8.7600000000        5.0575880000        0.0000000000
 Au        17.5200000000        5.0575880000        0.0000000000
 Au         1.4600000000        0.8429310000        2.3841700000
 Au        10.2200000000        0.8429310000        2.3841700000
 Au         5.8400000000        8.4293140000        2.3841700000
 Au        14.6000000000        8.4293140000        2.3841700000
 Au         4.3800000000        0.8429310000        2.3841700000
 Au        13.1400000000        0.8429310000        2.3841700000
 Au         8.7600000000        8.4293140000        2.3841700000
 Au        17.5200000000        8.4293140000        2.3841700000
 Au         7.3000000000        0.8429310000        2.3841700000
 Au        16.0599990000        0.8429310000        2.3841700000
 Au        11.6800000000        8.4293140000        2.3841700000
 Au        20.4400010000        8.4293140000        2.3841700000
 Au         2.9200000000        3.3717260000        2.3841700000
 Au        11.6800000000        3.3717260000        2.3841700000
 Au         7.3000000000       10.9581080000        2.3841700000
 Au        16.0599990000       10.9581080000        2.3841700000
 Au         5.8400000000        3.3717260000        2.3841700000
 Au        14.6000000000        3.3717260000        2.3841700000
 Au        10.2200000000       10.9581080000        2.3841700000
 Au        18.9800000000       10.9581080000        2.3841700000
 Au         8.7600000000        3.3717260000        2.3841700000
 Au        17.5200000000        3.3717260000        2.3841700000
 Au        13.1400000000       10.9581080000        2.3841700000
 Au        21.9000000000       10.9581080000        2.3841700000
 Au         4.3800000000        5.9005200000        2.3841700000
 Au        13.1400000000        5.9005200000        2.3841700000
 Au         7.3000000000        5.9005200000        2.3841700000
 Au        16.0599990000        5.9005200000        2.3841700000
 Au        10.2200000000        5.9005200000        2.3841700000
 Au        18.9800000000        5.9005200000        2.3841700000
 Au         0.0000000000        1.6858630000        4.7683400000
 Au         8.7600000000        1.6858630000        4.7683400000
 Au         4.3800000000        9.2722450000        4.7683400000
 Au        13.1400000000        9.2722450000        4.7683400000
 Au         2.9200000000        1.6858630000        4.7683400000
 Au        11.6800000000        1.6858630000        4.7683400000
 Au         7.3000000000        9.2722450000        4.7683400000
 Au        16.0599990000        9.2722450000        4.7683400000
 Au         5.8400000000        1.6858630000        4.7683400000
 Au        14.6000000000        1.6858630000        4.7683400000
 Au        10.2200000000        9.2722450000        4.7683400000
 Au        18.9800000000        9.2722450000        4.7683400000
 Au         1.4600000000        4.2146570000        4.7683400000
 Au        10.2200000000        4.2146570000        4.7683400000
 Au         5.8400000000       11.8010400000        4.7683400000
 Au        14.6000000000       11.8010400000        4.7683400000
 Au         4.3800000000        4.2146570000        4.7683400000
 Au        13.1400000000        4.2146570000        4.7683400000
 Au         8.7600000000       11.8010400000        4.7683400000
 Au        17.5200000000       11.8010400000        4.7683400000
 Au         7.3000000000        4.2146570000        4.7683400000
 Au        16.0599990000        4.2146570000        4.7683400000
 Au        11.6800000000       11.8010400000        4.7683400000
 Au        20.4400010000       11.8010400000        4.7683400000
 Au         2.9200000000        6.7434510000        4.7683400000
 Au        11.6800000000        6.7434510000        4.7683400000
 Au         5.8400000000        6.7434510000        4.7683400000
 Au        14.6000000000        6.7434510000        4.7683400000
 Au         8.7600000000        6.7434510000        4.7683400000
 Au        17.5200000000        6.7434510000        4.7683400000
  H        10.5455406871        5.1729759311       11.5051620108
  C        10.4927292505        5.8032076893       10.6151403961
  C        10.8967263560        7.1446298981       10.6939703009
  C        10.8355529956        7.9196172735        9.5215835454
  H        11.1656395777        8.9605597735        9.5434541920
  C        10.3483315444        7.3955358338        8.3264993012
  H        10.2832494573        8.0233025294        7.4359124053
  C         9.9147312180        6.0611439729        8.2733953178
  C        10.0139954186        5.2585825586        9.4249573838
  H         9.6934213193        4.2171970116        9.3880655358
  C        11.3433243480        7.7507900971       12.0031106239
  C        10.3367134364        8.7829185614       12.5699444901
  H        10.1844323919        9.5501498866       11.7943586918
  H        12.3069915779        8.2660996573       11.8595813455
  H        11.5220467912        6.9519439322       12.7370836902
  C        10.8259255011        9.4620718004       13.8604036164
  C         8.9707488010        8.1947733980       12.9641875615
  C         8.1914945494        8.8825929543       20.7500277302
  C         7.8293527722        7.6123084095       21.3482625398
  C         9.0485423210        6.9338277871       21.7431797434
  C        10.1743992957        7.7858237618       21.3870740147
  C         9.6419907879        8.9879793809       20.7678436583
  C        10.3140334176        9.5716585653       19.6893502514
  C        11.5472009258        8.9912331061       19.1928557426
  C        12.0638264556        7.8356974086       19.7937678721
  C        11.3573970959        7.2199253815       20.9054923554
  C        11.4651179002        5.7765942324       20.7569583727
  C        10.3841975294        4.9565716123       21.0938145217
  C         9.1527163990        5.5435752274       21.5974138022
  C         8.0408397096        4.7834817405       21.0617261981
  C         6.8606746638        5.4366551220       20.6863148591
  C         6.7518063167        6.8744713283       20.8285342719
  C         6.0023882457        7.3851548042       19.6970647737
  C         5.6503776576        6.2577444493       18.8482472453
  C         6.1744960343        5.0496190210       19.4628641576
  C         6.6909147026        4.0280073120       18.6624463760
  C         7.9176996700        3.3497048104       19.0521400697
  C         8.5794994539        3.7224079554       20.2259651242
  C        10.0282988891        3.8323903366       20.2441170722
  C        10.7621498369        3.5755331638       19.0819929281
  C        11.8821121409        4.4312942706       18.7283792675
  C        12.2337957614        5.5089500157       19.5541850131
  C        12.6038854853        6.7786550898       18.9611301230
  C        12.6072958531        6.9235631604       17.5674981079
  C        12.0716548817        8.1214981138       16.9466487643
  C        11.5624873320        9.1364188622       17.7482622215
  C        10.3159970562        9.8003428715       17.3473353683
  C         9.6755282771        9.4431905841       16.1702963188
  C        10.3265371774        8.5953338680       15.0698609367
  C        11.4020041848        7.7465591256       15.7051917714
  C        11.4740450301        6.3609748613       15.5876995310
  C        12.2324418123        5.8152868399       16.7236783791
  C        11.8810102320        4.5965936228       17.2908441418
  C        10.7547536917        3.8269779138       16.7497641978
  C        10.0745852075        3.1950615667       17.8597041531
  C         8.6771348420        3.0764117842       17.8447973292
  C         7.9244130683        3.5781329458       16.7120167945
  C         6.6981771343        4.1657543896       17.2147991082
  C         6.2000319424        5.3340004007       16.6222823742
  C         5.6706099855        6.3958976640       17.4570416298
  C         6.0516366424        7.6660651496       16.8626526601
  C         6.8108877127        7.4033245639       15.6617771963
  C         6.8973044976        5.9458999681       15.5053702670
  C         8.0777810855        5.3901282540       15.0258968595
  C         8.5957713626        4.1803255091       15.6392011272
  C        10.0320252369        4.3105343625       15.6659647205
  C        10.3700833823        5.6060577851       15.0566050150
  C         9.2009670404        6.2414200979       14.6449700632
  C         9.0686216707        7.7356626393       14.4626935752
  C         7.8781626446        8.2141187941       15.3048225411
  C         8.2501952639        9.2976656907       16.1657836526
  C         7.4928419803        9.5901591609       17.3257678468
  C         6.3703126494        8.7571580711       17.6800230664
  C         6.3496623812        8.6128543239       19.1231393076
  C         7.4660602598        9.3763141360       19.6598914449
  C         8.1623727670        9.9826130109       18.5415180282
  C         9.5598727005       10.0653439626       18.5495496661
  H         8.6522095071        7.3716733580       12.3117983236
  H         8.2020271465        8.9780688193       12.8943863465
  S         9.0829620114        5.3354646879        6.8856998926
  H        10.3736233363       10.4611446268       13.9436747936
  H        11.9155791283        9.5949503775       13.8902231438
 Au         8.7899945788        6.7570718366       25.9008562823
 Au         0.0000000000        0.0000000000       28.2102494069
 Au         8.7600000000        0.0000000000       28.2102494069
 Au         4.3800000000        7.5863820000       28.2102494069
 Au        13.1400000000        7.5863820000       28.2102494069
 Au         2.9200000000        0.0000000000       28.2102494069
 Au        11.6800000000        0.0000000000       28.2102494069
 Au         7.3000000000        7.5863820000       28.2102494069
 Au        16.0599990000        7.5863820000       28.2102494069
 Au         5.8400000000        0.0000000000       28.2102494069
 Au        14.6000000000        0.0000000000       28.2102494069
 Au        10.2200000000        7.5863820000       28.2102494069
 Au        18.9800000000        7.5863820000       28.2102494069
 Au         1.4600000000        2.5287940000       28.2102494069
 Au        10.2200000000        2.5287940000       28.2102494069
 Au         5.8400000000       10.1151760000       28.2102494069
 Au        14.6000000000       10.1151760000       28.2102494069
 Au         4.3800000000        2.5287940000       28.2102494069
 Au        13.1400000000        2.5287940000       28.2102494069
 Au         8.7600000000       10.1151760000       28.2102494069
 Au        17.5200000000       10.1151760000       28.2102494069
 Au         7.3000000000        2.5287940000       28.2102494069
 Au        16.0599990000        2.5287940000       28.2102494069
 Au        11.6800000000       10.1151760000       28.2102494069
 Au        20.4400010000       10.1151760000       28.2102494069
 Au         2.9200000000        5.0575880000       28.2102494069
 Au        11.6800000000        5.0575880000       28.2102494069
 Au         5.8400000000        5.0575880000       28.2102494069
 Au        14.6000000000        5.0575880000       28.2102494069
 Au         8.7600000000        5.0575880000       28.2102494069
 Au        17.5200000000        5.0575880000       28.2102494069
 Au         1.4600000000        0.8429310000       30.5944194069
 Au        10.2200000000        0.8429310000       30.5944194069
 Au         5.8400000000        8.4293140000       30.5944194069
 Au        14.6000000000        8.4293140000       30.5944194069
 Au         4.3800000000        0.8429310000       30.5944194069
 Au        13.1400000000        0.8429310000       30.5944194069
 Au         8.7600000000        8.4293140000       30.5944194069
 Au        17.5200000000        8.4293140000       30.5944194069
 Au         7.3000000000        0.8429310000       30.5944194069
 Au        16.0599990000        0.8429310000       30.5944194069
 Au        11.6800000000        8.4293140000       30.5944194069
 Au        20.4400010000        8.4293140000       30.5944194069
 Au         2.9200000000        3.3717260000       30.5944194069
 Au        11.6800000000        3.3717260000       30.5944194069
 Au         7.3000000000       10.9581080000       30.5944194069
 Au        16.0599990000       10.9581080000       30.5944194069
 Au         5.8400000000        3.3717260000       30.5944194069
 Au        14.6000000000        3.3717260000       30.5944194069
 Au        10.2200000000       10.9581080000       30.5944194069
 Au        18.9800000000       10.9581080000       30.5944194069
 Au         8.7600000000        3.3717260000       30.5944194069
 Au        17.5200000000        3.3717260000       30.5944194069
 Au        13.1400000000       10.9581080000       30.5944194069
 Au        21.9000000000       10.9581080000       30.5944194069
 Au         4.3800000000        5.9005200000       30.5944194069
 Au        13.1400000000        5.9005200000       30.5944194069
 Au         7.3000000000        5.9005200000       30.5944194069
 Au        16.0599990000        5.9005200000       30.5944194069
 Au        10.2200000000        5.9005200000       30.5944194069
 Au        18.9800000000        5.9005200000       30.5944194069
 Au         0.0000000000        1.6858630000       32.9785894069
 Au         8.7600000000        1.6858630000       32.9785894069
 Au         4.3800000000        9.2722450000       32.9785894069
 Au        13.1400000000        9.2722450000       32.9785894069
 Au         2.9200000000        1.6858630000       32.9785894069
 Au        11.6800000000        1.6858630000       32.9785894069
 Au         7.3000000000        9.2722450000       32.9785894069
 Au        16.0599990000        9.2722450000       32.9785894069
 Au         5.8400000000        1.6858630000       32.9785894069
 Au        14.6000000000        1.6858630000       32.9785894069
 Au        10.2200000000        9.2722450000       32.9785894069
 Au        18.9800000000        9.2722450000       32.9785894069
 Au         1.4600000000        4.2146570000       32.9785894069
 Au        10.2200000000        4.2146570000       32.9785894069
 Au         5.8400000000       11.8010400000       32.9785894069
 Au        14.6000000000       11.8010400000       32.9785894069
 Au         4.3800000000        4.2146570000       32.9785894069
 Au        13.1400000000        4.2146570000       32.9785894069
 Au         8.7600000000       11.8010400000       32.9785894069
 Au        17.5200000000       11.8010400000       32.9785894069
 Au         7.3000000000        4.2146570000       32.9785894069
 Au        16.0599990000        4.2146570000       32.9785894069
 Au        11.6800000000       11.8010400000       32.9785894069
 Au        20.4400010000       11.8010400000       32.9785894069
 Au         2.9200000000        6.7434510000       32.9785894069
 Au        11.6800000000        6.7434510000       32.9785894069
 Au         5.8400000000        6.7434510000       32.9785894069
 Au        14.6000000000        6.7434510000       32.9785894069
 Au         8.7600000000        6.7434510000       32.9785894069
 Au        17.5200000000        6.7434510000       32.9785894069
 Au    0.000000    0.000000    55.08927    R1
Au    8.760000    0.000000    55.08927    R1
Au    4.380000    7.586382    55.08927    R1
Au    13.140000    7.586382    55.08927    R1
Au    2.920000    0.000000    55.08927    R1
Au    11.680000    0.000000    55.08927    R1
Au    7.300000    7.586382    55.08927    R1
Au    16.059999    7.586382    55.08927    R1
Au    5.840000    0.000000    55.08927    R1
Au    14.600000    0.000000    55.08927    R1
Au    10.220000    7.586382    55.08927    R1
Au    18.980000    7.586382    55.08927    R1
Au    1.460000    2.528794    55.08927    R1
Au    10.220000    2.528794    55.08927    R1
Au    5.840000    10.115176    55.08927    R1
Au    14.600000    10.115176    55.08927    R1
Au    4.380000    2.528794    55.08927    R1
Au    13.140000    2.528794    55.08927    R1
Au    8.760000    10.115176    55.08927    R1
Au    17.520000    10.115176    55.08927    R1
Au    7.300000    2.528794    55.08927    R1
Au    16.059999    2.528794    55.08927    R1
Au    11.680000    10.115176    55.08927    R1
Au    20.440001    10.115176    55.08927    R1
Au    2.920000    5.057588    55.08927    R1
Au    11.680000    5.057588    55.08927    R1
Au    5.840000    5.057588    55.08927    R1
Au    14.600000    5.057588    55.08927    R1
Au    8.760000    5.057588    55.08927    R1
Au    17.520000    5.057588    55.08927    R1
Au    1.460000    0.842931    57.47344    R1
Au    10.220000    0.842931    57.47344    R1
Au    5.840000    8.429314    57.47344    R1
Au    14.600000    8.429314    57.47344    R1
Au    4.380000    0.842931    57.47344    R1
Au    13.140000    0.842931    57.47344    R1
Au    8.760000    8.429314    57.47344    R1
Au    17.520000    8.429314    57.47344    R1
Au    7.300000    0.842931    57.47344    R1
Au    16.059999    0.842931    57.47344    R1
Au    11.680000    8.429314    57.47344    R1
Au    20.440001    8.429314    57.47344    R1
Au    2.920000    3.371726    57.47344    R1
Au    11.680000    3.371726    57.47344    R1
Au    7.300000    10.958108    57.47344    R1
Au    16.059999    10.958108    57.47344    R1
Au    5.840000    3.371726    57.47344    R1
Au    14.600000    3.371726    57.47344    R1
Au    10.220000    10.958108    57.47344    R1
Au    18.980000    10.958108    57.47344    R1
Au    8.760000    3.371726    57.47344    R1
Au    17.520000    3.371726    57.47344    R1
Au    13.140000    10.958108    57.47344    R1
Au    21.900000    10.958108    57.47344    R1
Au    4.380000    5.900520    57.47344    R1
Au    13.140000    5.900520    57.47344    R1
Au    7.300000    5.900520    57.47344    R1
Au    16.059999    5.900520    57.47344    R1
Au    10.220000    5.900520    57.47344    R1
Au    18.980000    5.900520    57.47344    R1
Au    0.000000    1.685863    59.85761    R1
Au    8.760000    1.685863    59.85761    R1
Au    4.380000    9.272245    59.85761    R1
Au    13.140000    9.272245    59.85761    R1
Au    2.920000    1.685863    59.85761    R1
Au    11.680000    1.685863    59.85761    R1
Au    7.300000    9.272245    59.85761    R1
Au    16.059999    9.272245    59.85761    R1
Au    5.840000    1.685863    59.85761    R1
Au    14.600000    1.685863    59.85761    R1
Au    10.220000    9.272245    59.85761    R1
Au    18.980000    9.272245    59.85761    R1
Au    1.460000    4.214657    59.85761    R1
Au    10.220000    4.214657    59.85761    R1
Au    5.840000    11.801040    59.85761    R1
Au    14.600000    11.801040    59.85761    R1
Au    4.380000    4.214657    59.85761    R1
Au    13.140000    4.214657    59.85761    R1
Au    8.760000    11.801040    59.85761    R1
Au    17.520000    11.801040    59.85761    R1
Au    7.300000    4.214657    59.85761    R1
Au    16.059999    4.214657    59.85761    R1
Au    11.680000    11.801040    59.85761    R1
Au    20.440001    11.801040    59.85761    R1
Au    2.920000    6.743451    59.85761    R1
Au    11.680000    6.743451    59.85761    R1
Au    5.840000    6.743451    59.85761    R1
Au    14.600000    6.743451    59.85761    R1
Au    8.760000    6.743451    59.85761    R1
Au    17.520000    6.743451    59.85761    R1
Au    0.000000    0.000000    62.241779    R2
Au    8.760000    0.000000    62.241779    R2
Au    4.380000    7.586382    62.241779    R2
Au    13.140000    7.586382    62.241779    R2
Au    2.920000    0.000000    62.241779    R2
Au    11.680000    0.000000    62.241779    R2
Au    7.300000    7.586382    62.241779    R2
Au    16.059999    7.586382    62.241779    R2
Au    5.840000    0.000000    62.241779    R2
Au    14.600000    0.000000    62.241779    R2
Au    10.220000    7.586382    62.241779    R2
Au    18.980000    7.586382    62.241779    R2
Au    1.460000    2.528794    62.241779    R2
Au    10.220000    2.528794    62.241779    R2
Au    5.840000    10.115176    62.241779    R2
Au    14.600000    10.115176    62.241779    R2
Au    4.380000    2.528794    62.241779    R2
Au    13.140000    2.528794    62.241779    R2
Au    8.760000    10.115176    62.241779    R2
Au    17.520000    10.115176    62.241779    R2
Au    7.300000    2.528794    62.241779    R2
Au    16.059999    2.528794    62.241779    R2
Au    11.680000    10.115176    62.241779    R2
Au    20.440001    10.115176    62.241779    R2
Au    2.920000    5.057588    62.241779    R2
Au    11.680000    5.057588    62.241779    R2
Au    5.840000    5.057588    62.241779    R2
Au    14.600000    5.057588    62.241779    R2
Au    8.760000    5.057588    62.241779    R2
Au    17.520000    5.057588    62.241779    R2
Au    1.460000    0.842931    64.62595    R2
Au    10.220000    0.842931    64.62595    R2
Au    5.840000    8.429314    64.62595    R2
Au    14.600000    8.429314    64.62595    R2
Au    4.380000    0.842931    64.62595    R2
Au    13.140000    0.842931    64.62595    R2
Au    8.760000    8.429314    64.62595    R2
Au    17.520000    8.429314    64.62595    R2
Au    7.300000    0.842931    64.62595    R2
Au    16.059999    0.842931    64.62595    R2
Au    11.680000    8.429314    64.62595    R2
Au    20.440001    8.429314    64.62595    R2
Au    2.920000    3.371726    64.62595    R2
Au    11.680000    3.371726    64.62595    R2
Au    7.300000    10.958108    64.62595    R2
Au    16.059999    10.958108    64.62595    R2
Au    5.840000    3.371726    64.62595    R2
Au    14.600000    3.371726    64.62595    R2
Au    10.220000    10.958108    64.62595    R2
Au    18.980000    10.958108    64.62595    R2
Au    8.760000    3.371726    64.62595    R2
Au    17.520000    3.371726    64.62595    R2
Au    13.140000    10.958108    64.62595    R2
Au    21.900000    10.958108    64.62595    R2
Au    4.380000    5.900520    64.62595    R2
Au    13.140000    5.900520    64.62595    R2
Au    7.300000    5.900520    64.62595    R2
Au    16.059999    5.900520    64.62595    R2
Au    10.220000    5.900520    64.62595    R2
Au    18.980000    5.900520    64.62595    R2
Au    0.000000    1.685863    67.01012    R2
Au    8.760000    1.685863    67.01012    R2
Au    4.380000    9.272245    67.01012    R2
Au    13.140000    9.272245    67.01012    R2
Au    2.920000    1.685863    67.01012    R2
Au    11.680000    1.685863    67.01012    R2
Au    7.300000    9.272245    67.01012    R2
Au    16.059999    9.272245    67.01012    R2
Au    5.840000    1.685863    67.01012    R2
Au    14.600000    1.685863    67.01012    R2
Au    10.220000    9.272245    67.01012    R2
Au    18.980000    9.272245    67.01012    R2
Au    1.460000    4.214657    67.01012    R2
Au    10.220000    4.214657    67.01012    R2
Au    5.840000    11.801040    67.01012    R2
Au    14.600000    11.801040    67.01012    R2
Au    4.380000    4.214657    67.01012    R2
Au    13.140000    4.214657    67.01012    R2
Au    8.760000    11.801040    67.01012    R2
Au    17.520000    11.801040    67.01012    R2
Au    7.300000    4.214657    67.01012    R2
Au    16.059999    4.214657    67.01012    R2
Au    11.680000    11.801040    67.01012    R2
Au    20.440001    11.801040    67.01012    R2
Au    2.920000    6.743451    67.01012    R2
Au    11.680000    6.743451    67.01012    R2
Au    5.840000    6.743451    67.01012    R2
Au    14.600000    6.743451    67.01012    R2
Au    8.760000    6.743451    67.01012    R2
Au    17.520000    6.743451    67.01012    R2
Au    0.000000    0.000000    69.394289    R3
Au    8.760000    0.000000    69.394289    R3
Au    4.380000    7.586382    69.394289    R3
Au    13.140000    7.586382    69.394289    R3
Au    2.920000    0.000000    69.394289    R3
Au    11.680000    0.000000    69.394289    R3
Au    7.300000    7.586382    69.394289    R3
Au    16.059999    7.586382    69.394289    R3
Au    5.840000    0.000000    69.394289    R3
Au    14.600000    0.000000    69.394289    R3
Au    10.220000    7.586382    69.394289    R3
Au    18.980000    7.586382    69.394289    R3
Au    1.460000    2.528794    69.394289    R3
Au    10.220000    2.528794    69.394289    R3
Au    5.840000    10.115176    69.394289    R3
Au    14.600000    10.115176    69.394289    R3
Au    4.380000    2.528794    69.394289    R3
Au    13.140000    2.528794    69.394289    R3
Au    8.760000    10.115176    69.394289    R3
Au    17.520000    10.115176    69.394289    R3
Au    7.300000    2.528794    69.394289    R3
Au    16.059999    2.528794    69.394289    R3
Au    11.680000    10.115176    69.394289    R3
Au    20.440001    10.115176    69.394289    R3
Au    2.920000    5.057588    69.394289    R3
Au    11.680000    5.057588    69.394289    R3
Au    5.840000    5.057588    69.394289    R3
Au    14.600000    5.057588    69.394289    R3
Au    8.760000    5.057588    69.394289    R3
Au    17.520000    5.057588    69.394289    R3
Au    1.460000    0.842931    71.77846    R3
Au    10.220000    0.842931    71.77846    R3
Au    5.840000    8.429314    71.77846    R3
Au    14.600000    8.429314    71.77846    R3
Au    4.380000    0.842931    71.77846    R3
Au    13.140000    0.842931    71.77846    R3
Au    8.760000    8.429314    71.77846    R3
Au    17.520000    8.429314    71.77846    R3
Au    7.300000    0.842931    71.77846    R3
Au    16.059999    0.842931    71.77846    R3
Au    11.680000    8.429314    71.77846    R3
Au    20.440001    8.429314    71.77846    R3
Au    2.920000    3.371726    71.77846    R3
Au    11.680000    3.371726    71.77846    R3
Au    7.300000    10.958108    71.77846    R3
Au    16.059999    10.958108    71.77846    R3
Au    5.840000    3.371726    71.77846    R3
Au    14.600000    3.371726    71.77846    R3
Au    10.220000    10.958108    71.77846    R3
Au    18.980000    10.958108    71.77846    R3
Au    8.760000    3.371726    71.77846    R3
Au    17.520000    3.371726    71.77846    R3
Au    13.140000    10.958108    71.77846    R3
Au    21.900000    10.958108    71.77846    R3
Au    4.380000    5.900520    71.77846    R3
Au    13.140000    5.900520    71.77846    R3
Au    7.300000    5.900520    71.77846    R3
Au    16.059999    5.900520    71.77846    R3
Au    10.220000    5.900520    71.77846    R3
Au    18.980000    5.900520    71.77846    R3
Au    0.000000    1.685863    74.16263000000001    R3
Au    8.760000    1.685863    74.16263000000001    R3
Au    4.380000    9.272245    74.16263000000001    R3
Au    13.140000    9.272245    74.16263000000001    R3
Au    2.920000    1.685863    74.16263000000001    R3
Au    11.680000    1.685863    74.16263000000001    R3
Au    7.300000    9.272245    74.16263000000001    R3
Au    16.059999    9.272245    74.16263000000001    R3
Au    5.840000    1.685863    74.16263000000001    R3
Au    14.600000    1.685863    74.16263000000001    R3
Au    10.220000    9.272245    74.16263000000001    R3
Au    18.980000    9.272245    74.16263000000001    R3
Au    1.460000    4.214657    74.16263000000001    R3
Au    10.220000    4.214657    74.16263000000001    R3
Au    5.840000    11.801040    74.16263000000001    R3
Au    14.600000    11.801040    74.16263000000001    R3
Au    4.380000    4.214657    74.16263000000001    R3
Au    13.140000    4.214657    74.16263000000001    R3
Au    8.760000    11.801040    74.16263000000001    R3
Au    17.520000    11.801040    74.16263000000001    R3
Au    7.300000    4.214657    74.16263000000001    R3
Au    16.059999    4.214657    74.16263000000001    R3
Au    11.680000    11.801040    74.16263000000001    R3
Au    20.440001    11.801040    74.16263000000001    R3
Au    2.920000    6.743451    74.16263000000001    R3
Au    11.680000    6.743451    74.16263000000001    R3
Au    5.840000    6.743451    74.16263000000001    R3
Au    14.600000    6.743451    74.16263000000001    R3
Au    8.760000    6.743451    74.16263000000001    R3
Au    17.520000    6.743451    74.16263000000001    R3
