     184
 i =       10, E =     -5087.1301151775
 Au         0.0000000000        0.0000000000       -0.2380614785
 Au         8.7600000000        0.0000000000       -0.2379757434
 Au         4.3800000000        7.5863820000       -0.2378093291
 Au        13.1400000000        7.5863820000       -0.2383541837
 Au         2.9200000000        0.0000000000       -0.2380589303
 Au        11.6800000000        0.0000000000       -0.2380544878
 Au         7.3000000000        7.5863820000       -0.2383580424
 Au        16.0599990000        7.5863820000       -0.2378745750
 Au         5.8400000000        0.0000000000       -0.2379366773
 Au        10.2200000000        7.5863820000       -0.2387680755
 Au         1.4600000000        2.5287940000       -0.2379629599
 Au        10.2200000000        2.5287940000       -0.2384655558
 Au         5.8400000000       10.1151760000       -0.2379799937
 Au        14.6000000000       10.1151760000       -0.2379514963
 Au         4.3800000000        2.5287940000       -0.2378420852
 Au        13.1400000000        2.5287940000       -0.2381647218
 Au         8.7600000000       10.1151760000       -0.2383701777
 Au        17.5200000000       10.1151760000       -0.2379643099
 Au         7.3000000000        2.5287940000       -0.2379724573
 Au        11.6800000000       10.1151760000       -0.2382537452
 Au         2.9200000000        5.0575880000       -0.2378064802
 Au        11.6800000000        5.0575880000       -0.2386797128
 Au         5.8400000000        5.0575880000       -0.2377886120
 Au        14.6000000000        5.0575880000       -0.2380268958
 Au         8.7600000000        5.0575880000       -0.2385386199
 Au         1.4600000000        0.8429310000        2.3845761897
 Au        10.2200000000        0.8429310000        2.3845621000
 Au         5.8400000000        8.4293140000        2.3846176382
 Au        14.6000000000        8.4293140000        2.3846449634
 Au         4.3800000000        0.8429310000        2.3845700235
 Au        13.1400000000        0.8429310000        2.3845895794
 Au         8.7600000000        8.4293140000        2.3845802511
 Au        17.5200000000        8.4293140000        2.3845701308
 Au         7.3000000000        0.8429310000        2.3846024183
 Au        11.6800000000        8.4293140000        2.3845935280
 Au         2.9200000000        3.3717260000        2.3845731750
 Au        11.6800000000        3.3717260000        2.3845956188
 Au         7.3000000000       10.9581080000        2.3845778310
 Au        16.0599990000       10.9581080000        2.3845664808
 Au         5.8400000000        3.3717260000        2.3846853458
 Au        14.6000000000        3.3717260000        2.3846437830
 Au        10.2200000000       10.9581080000        2.3845604941
 Au        18.9800000000       10.9581080000        2.3845576945
 Au         8.7600000000        3.3717260000        2.3846665781
 Au        13.1400000000       10.9581080000        2.3846085026
 Au         4.3800000000        5.9005200000        2.3846318457
 Au        13.1400000000        5.9005200000        2.3846746315
 Au         7.3000000000        5.9005200000        2.3847611666
 Au        16.0599990000        5.9005200000        2.3846194694
 Au        10.2200000000        5.9005200000        2.3846988195
 Au         8.7600000000        1.6858630000        5.0070251440
 Au        13.1400000000        9.2722450000        5.0071490513
 Au         2.9200000000        1.6858630000        5.0069066433
 Au        11.6800000000        1.6858630000        5.0070649714
 Au         7.3000000000        9.2722450000        5.0072669205
 Au        16.0599990000        9.2722450000        5.0069059277
 Au         5.8400000000        1.6858630000        5.0068775523
 Au        14.6000000000        1.6858630000        5.0070015198
 Au        10.2200000000        9.2722450000        5.0077807048
 Au        18.9800000000        9.2722450000        5.0068912482
 Au        10.2200000000        4.2146570000        5.0084797553
 Au        14.6000000000       11.8010400000        5.0069323043
 Au         4.3800000000        4.2146570000        5.0068217438
 Au        13.1400000000        4.2146570000        5.0074102395
 Au         8.7600000000       11.8010400000        5.0070372428
 Au        17.5200000000       11.8010400000        5.0069380990
 Au         7.3000000000        4.2146570000        5.0074344921
 Au        16.0599990000        4.2146570000        5.0069072548
 Au        11.6800000000       11.8010400000        5.0069855301
 Au        20.4400010000       11.8010400000        5.0069842951
 Au        11.6800000000        6.7434510000        5.0084294422
 Au         5.8400000000        6.7434510000        5.0069615448
 Au        14.6000000000        6.7434510000        5.0070190091
 Au         8.7600000000        6.7434510000        5.0084876624
 Au        17.5200000000        6.7434510000        5.0068463687
  C        10.1250646687        5.8107948368       10.8127452726
  C        10.1618833903        4.7188649839       11.6840876469
  C         9.7905482736        4.8761280195       13.0218090691
  C         9.3760416730        6.1223359397       13.5161604169
  C         9.7119372779        7.0577123743       11.2899705790
  C         9.3416955539        7.2088090856       12.6285460233
  C        10.7178262576        7.4694047620       19.6406800007
  H         9.8163744460        4.0157977168       13.6949083334
  H        10.4112604656        5.6898620103        9.7671742373
  H         9.6732809202        7.9150663697       10.6162166588
  H         9.0141123714        8.1856727797       12.9920787277
  H        10.4763743396        3.7396569523       11.3199206853
  C        10.7463614691        6.3852297451       20.5313190455
  C        10.3731652570        6.5411807938       21.8685237342
  C         9.9625513562        7.7907026519       22.3412644845
  C         9.9315794171        8.8803897996       21.4668502453
  C        10.3060211344        8.7182604718       20.1305591831
  H        10.4072009702        5.6855676090       22.5447764454
  H        11.0716915701        5.4063133463       20.1714055579
  H         9.6193848225        9.8616629614       21.8274820367
  H        10.2847683416        9.5768029209       19.4550584167
  H         9.6740415860        7.9154292240       23.3858258345
  C         9.0202772420        6.3004497812       14.9729183458
  C        11.0758602034        7.2862604579       18.1850857499
  C         9.8681213121        6.8885756697       17.3161101156
  C        10.2281232840        6.6997614858       15.8410603814
  H         9.0855722293        7.6594962230       17.4134247823
  H         9.4285165033        5.9591528960       17.7149654097
  H        10.6663733331        7.6296688917       15.4419237183
  H        11.0115489292        5.9297721263       15.7435722061
  H         8.5896419824        5.3652778764       15.3656054487
  H         8.2383478407        7.0706737948       15.0708846680
  H        11.8555753414        6.5133673884       18.0905007660
  H        11.5100768546        8.2191026891       17.7908756270
 Au         8.7600020000        1.6858630000       28.1466980564
 Au        13.1400000000        9.2722460000       28.1461474693
 Au         2.9200000000        1.6858630000       28.1467554471
 Au        11.6800000000        1.6858630000       28.1466639426
 Au         7.3000000000        9.2722460000       28.1456720324
 Au        16.0599990000        9.2722460000       28.1468637494
 Au         5.8400010000        1.6858630000       28.1467819642
 Au        14.6000000000        1.6858630000       28.1467081738
 Au        10.2200000000        9.2722460000       28.1444874716
 Au        18.9800000000        9.2722460000       28.1467692678
 Au        10.2200010000        4.2146570000       28.1452978780
 Au        14.6000000000       11.8010400000       28.1468288802
 Au         4.3800000000        4.2146570000       28.1467982332
 Au        13.1400000000        4.2146570000       28.1464596073
 Au         8.7600000000       11.8010400000       28.1464016874
 Au        17.5200000000       11.8010400000       28.1467832948
 Au         7.3000000000        4.2146570000       28.1463442372
 Au        16.0599990000        4.2146570000       28.1468107945
 Au        11.6800000000       11.8010400000       28.1466086413
 Au        20.4400010000       11.8010400000       28.1466844788
 Au        11.6800000000        6.7434510000       28.1446092671
 Au         5.8400000000        6.7434510000       28.1465262864
 Au        14.6000000000        6.7434510000       28.1467593445
 Au         8.7600000000        6.7434510000       28.1443700466
 Au        17.5200000000        6.7434510000       28.1468537910
 Au         1.4600000000        0.8429310000       30.7689075734
 Au        10.2200000000        0.8429310000       30.7689209558
 Au         5.8400010000        8.4293140000       30.7687379475
 Au        14.6000000000        8.4293140000       30.7687460307
 Au         4.3800000000        0.8429310000       30.7688978806
 Au        13.1400010000        0.8429310000       30.7689065137
 Au         8.7600000000        8.4293140000       30.7683638522
 Au        17.5200000000        8.4293140000       30.7689058335
 Au         7.3000010000        0.8429310000       30.7689113289
 Au        11.6800000000        8.4293140000       30.7682701037
 Au         2.9200000000        3.3717260000       30.7689341004
 Au        11.6800010000        3.3717260000       30.7687625935
 Au         7.3000000000       10.9581090000       30.7687832370
 Au        16.0599980000       10.9581090000       30.7689211165
 Au         5.8400000000        3.3717260000       30.7688516564
 Au        14.6000000000        3.3717260000       30.7688908062
 Au        10.2200000000       10.9581090000       30.7686101352
 Au        18.9800000000       10.9581090000       30.7689066327
 Au         8.7600000000        3.3717260000       30.7687431859
 Au        13.1399990000       10.9581090000       30.7687591058
 Au         4.3800000000        5.9005200000       30.7688558326
 Au        13.1400000000        5.9005200000       30.7685463393
 Au         7.3000000000        5.9005200000       30.7685459392
 Au        16.0599990000        5.9005200000       30.7688909509
 Au        10.2200000000        5.9005200000       30.7683153770
 Au         0.0000000000        0.0000000000       33.3913757791
 Au         8.7600000000        0.0000000000       33.3912528330
 Au         4.3800000000        7.5863820000       33.3911717709
 Au        13.1399990000        7.5863820000       33.3912640817
 Au         2.9200000000        0.0000000000       33.3913338744
 Au        11.6800000000        0.0000000000       33.3913288643
 Au         7.3000000000        7.5863820000       33.3915856194
 Au        16.0599990000        7.5863820000       33.3910439150
 Au         5.8400000000        0.0000000000       33.3911748301
 Au        10.2200000000        7.5863820000       33.3914708009
 Au         1.4600000000        2.5287940000       33.3913039583
 Au        10.2200000000        2.5287940000       33.3913650414
 Au         5.8400000000       10.1151760000       33.3913081015
 Au        14.6000000000       10.1151760000       33.3910327064
 Au         4.3800000000        2.5287940000       33.3912413198
 Au        13.1400000000        2.5287940000       33.3913499572
 Au         8.7600000000       10.1151760000       33.3916672406
 Au        17.5200000000       10.1151760000       33.3911800049
 Au         7.3000000000        2.5287940000       33.3912941956
 Au        11.6800000000       10.1151760000       33.3914076989
 Au         2.9200000000        5.0575880000       33.3911668612
 Au        11.6800000000        5.0575880000       33.3915567679
 Au         5.8400000000        5.0575880000       33.3912548274
 Au        14.6000000000        5.0575880000       33.3911427235
 Au         8.7600000000        5.0575880000       33.3916158917