     184
 i =       21, E =     -5087.1329357783
 Au         0.0000000000        0.0000000000       -0.2384598998
 Au         8.7600000000        0.0000000000       -0.2385892045
 Au         4.3800000000        7.5863820000       -0.2378574864
 Au        13.1400000000        7.5863820000       -0.2384570288
 Au         2.9200000000        0.0000000000       -0.2384970769
 Au        11.6800000000        0.0000000000       -0.2387966631
 Au         7.3000000000        7.5863820000       -0.2364102762
 Au        16.0599990000        7.5863820000       -0.2378252772
 Au         5.8400000000        0.0000000000       -0.2380633920
 Au        10.2200000000        7.5863820000       -0.2370979974
 Au         1.4600000000        2.5287940000       -0.2382724256
 Au        10.2200000000        2.5287940000       -0.2385556211
 Au         5.8400000000       10.1151760000       -0.2381690681
 Au        14.6000000000       10.1151760000       -0.2379327518
 Au         4.3800000000        2.5287940000       -0.2380908038
 Au        13.1400000000        2.5287940000       -0.2391068898
 Au         8.7600000000       10.1151760000       -0.2382974744
 Au        17.5200000000       10.1151760000       -0.2380492513
 Au         7.3000000000        2.5287940000       -0.2376430513
 Au        11.6800000000       10.1151760000       -0.2388556790
 Au         2.9200000000        5.0575880000       -0.2380523075
 Au        11.6800000000        5.0575880000       -0.2381579367
 Au         5.8400000000        5.0575880000       -0.2362412823
 Au        14.6000000000        5.0575880000       -0.2382812076
 Au         8.7600000000        5.0575880000       -0.2366504379
 Au         1.4600000000        0.8429310000        2.3844061270
 Au        10.2200000000        0.8429310000        2.3843158622
 Au         5.8400000000        8.4293140000        2.3852254230
 Au        14.6000000000        8.4293140000        2.3848788443
 Au         4.3800000000        0.8429310000        2.3842587597
 Au        13.1400000000        0.8429310000        2.3844151868
 Au         8.7600000000        8.4293140000        2.3852362012
 Au        17.5200000000        8.4293140000        2.3843725351
 Au         7.3000000000        0.8429310000        2.3845793745
 Au        11.6800000000        8.4293140000        2.3835755478
 Au         2.9200000000        3.3717260000        2.3842030358
 Au        11.6800000000        3.3717260000        2.3821846571
 Au         7.3000000000       10.9581080000        2.3845759886
 Au        16.0599990000       10.9581080000        2.3843734934
 Au         5.8400000000        3.3717260000        2.3850795742
 Au        14.6000000000        3.3717260000        2.3842540846
 Au        10.2200000000       10.9581080000        2.3846693493
 Au        18.9800000000       10.9581080000        2.3842464921
 Au         8.7600000000        3.3717260000        2.3835555113
 Au        13.1400000000       10.9581080000        2.3845779308
 Au         4.3800000000        5.9005200000        2.3846723372
 Au        13.1400000000        5.9005200000        2.3834337966
 Au         7.3000000000        5.9005200000        2.3865291632
 Au        16.0599990000        5.9005200000        2.3844632436
 Au        10.2200000000        5.9005200000        2.3823191816
 Au         8.7600000000        1.6858630000        5.0080618458
 Au        13.1400000000        9.2722450000        5.0081097278
 Au         2.9200000000        1.6858630000        5.0067459515
 Au        11.6800000000        1.6858630000        5.0085547619
 Au         7.3000000000        9.2722450000        5.0091527297
 Au        16.0599990000        9.2722450000        5.0069224440
 Au         5.8400000000        1.6858630000        5.0067926746
 Au        14.6000000000        1.6858630000        5.0075567733
 Au        10.2200000000        9.2722450000        5.0110484687
 Au        18.9800000000        9.2722450000        5.0069595759
 Au        10.2200000000        4.2146570000        4.9962126490
 Au        14.6000000000       11.8010400000        5.0070427445
 Au         4.3800000000        4.2146570000        5.0064319096
 Au        13.1400000000        4.2146570000        5.0077536233
 Au         8.7600000000       11.8010400000        5.0080006710
 Au        17.5200000000       11.8010400000        5.0072535217
 Au         7.3000000000        4.2146570000        5.0087557564
 Au        16.0599990000        4.2146570000        5.0067206521
 Au        11.6800000000       11.8010400000        5.0074024326
 Au        20.4400010000       11.8010400000        5.0073290775
 Au        11.6800000000        6.7434510000        4.9998353133
 Au         5.8400000000        6.7434510000        5.0076385520
 Au        14.6000000000        6.7434510000        5.0073068058
 Au         8.7600000000        6.7434510000        5.0033878371
 Au        17.5200000000        6.7434510000        5.0065325736
  C        10.1280757062        5.8108728168        8.8174950054
  C        10.1624606255        4.7178396953        9.6871601333
  C         9.7896839103        4.8765569336       11.0238919884
  C         9.3754268312        6.1238901865       11.5165019341
  C         9.7118806864        7.0582531096        9.2903040266
  C         9.3400721404        7.2100561984       10.6281835290
  C        10.7181822965        7.4683335504       17.6401626545
  H         9.8145460143        4.0173530338       11.6981405156
  H        10.4216849908        5.6906723066        7.7729948451
  H         9.6742154546        7.9137769854        8.6136480929
  H         9.0116439359        8.1866077346       10.9912913626
  H        10.4768639745        3.7388165903        9.3222515492
  C        10.7482251581        6.3844850259       18.5314865719
  C        10.3743113444        6.5411404505       19.8682158776
  C         9.9606366277        7.7910089094       20.3366242559
  C         9.9310313163        8.8816648447       19.4638477878
  C        10.3065706027        8.7181934570       18.1284558649
  H        10.4080452230        5.6874366364       20.5473757894
  H        11.0741740091        5.4058766666       18.1717171912
  H         9.6185966034        9.8625951956       19.8253074126
  H        10.2860323280        9.5756060159       17.4518165274
  H         9.6653316017        7.9149857016       21.3802948565
  C         9.0198503571        6.3023166961       12.9729810145
  C        11.0760995862        7.2850571936       16.1848761806
  C         9.8677307472        6.8882444782       15.3160904719
  C        10.2283125444        6.7007026148       13.8409664169
  H         9.0851647866        7.6591903073       15.4136443392
  H         9.4279916440        5.9583904105       15.7139049089
  H        10.6667781784        7.6310069923       13.4428452511
  H        11.0117110132        5.9306027189       13.7432387134
  H         8.5893228524        5.3669994490       13.3653853201
  H         8.2384914105        7.0730482071       13.0710090036
  H        11.8552375343        6.5116621260       16.0901808840
  H        11.5101667767        8.2180742987       15.7908982493
 Au         8.7600020000        1.6858630000       24.1456313841
 Au        13.1400000000        9.2722460000       24.1442191966
 Au         2.9200000000        1.6858630000       24.1458719895
 Au        11.6800000000        1.6858630000       24.1451951069
 Au         7.3000000000        9.2722460000       24.1459840916
 Au        16.0599990000        9.2722460000       24.1466370491
 Au         5.8400010000        1.6858630000       24.1462020255
 Au        14.6000000000        1.6858630000       24.1459665465
 Au        10.2200000000        9.2722460000       24.1546822034
 Au        18.9800000000        9.2722460000       24.1462694807
 Au        10.2200010000        4.2146570000       24.1410158564
 Au        14.6000000000       11.8010400000       24.1463808210
 Au         4.3800000000        4.2146570000       24.1463514846
 Au        13.1400000000        4.2146570000       24.1442062949
 Au         8.7600000000       11.8010400000       24.1444354914
 Au        17.5200000000       11.8010400000       24.1462609197
 Au         7.3000000000        4.2146570000       24.1448010033
 Au        16.0599990000        4.2146570000       24.1464868669
 Au        11.6800000000       11.8010400000       24.1455006607
 Au        20.4400010000       11.8010400000       24.1455036074
 Au        11.6800000000        6.7434510000       24.1452078970
 Au         5.8400000000        6.7434510000       24.1459273490
 Au        14.6000000000        6.7434510000       24.1462304830
 Au         8.7600000000        6.7434510000       24.1573472825
 Au        17.5200000000        6.7434510000       24.1466568515
 Au         1.4600000000        0.8429310000       26.7688543163
 Au        10.2200000000        0.8429310000       26.7685987801
 Au         5.8400010000        8.4293140000       26.7683337575
 Au        14.6000000000        8.4293140000       26.7673543007
 Au         4.3800000000        0.8429310000       26.7687374302
 Au        13.1400010000        0.8429310000       26.7686738230
 Au         8.7600000000        8.4293140000       26.7713510081
 Au        17.5200000000        8.4293140000       26.7688027402
 Au         7.3000010000        0.8429310000       26.7687288027
 Au        11.6800000000        8.4293140000       26.7671826779
 Au         2.9200000000        3.3717260000       26.7687705852
 Au        11.6800010000        3.3717260000       26.7675866309
 Au         7.3000000000       10.9581090000       26.7686238479
 Au        16.0599980000       10.9581090000       26.7686761590
 Au         5.8400000000        3.3717260000       26.7683437358
 Au        14.6000000000        3.3717260000       26.7685677789
 Au        10.2200000000       10.9581090000       26.7702452405
 Au        18.9800000000       10.9581090000       26.7685621865
 Au         8.7600000000        3.3717260000       26.7677726626
 Au        13.1399990000       10.9581090000       26.7674982183
 Au         4.3800000000        5.9005200000       26.7686003119
 Au        13.1400000000        5.9005200000       26.7672004844
 Au         7.3000000000        5.9005200000       26.7709736024
 Au        16.0599990000        5.9005200000       26.7687290230
 Au        10.2200000000        5.9005200000       26.7685871017
 Au         0.0000000000        0.0000000000       29.3919221472
 Au         8.7600000000        0.0000000000       29.3910440130
 Au         4.3800000000        7.5863820000       29.3909126957
 Au        13.1399990000        7.5863820000       29.3884699374
 Au         2.9200000000        0.0000000000       29.3921749992
 Au        11.6800000000        0.0000000000       29.3910826035
 Au         7.3000000000        7.5863820000       29.3913245833
 Au        16.0599990000        7.5863820000       29.3906744572
 Au         5.8400000000        0.0000000000       29.3910272252
 Au        10.2200000000        7.5863820000       29.3899811974
 Au         1.4600000000        2.5287940000       29.3913408801
 Au        10.2200000000        2.5287940000       29.3913230549
 Au         5.8400000000       10.1151760000       29.3912310763
 Au        14.6000000000       10.1151760000       29.3900540790
 Au         4.3800000000        2.5287940000       29.3909118144
 Au        13.1400000000        2.5287940000       29.3914315543
 Au         8.7600000000       10.1151760000       29.3911015493
 Au        17.5200000000       10.1151760000       29.3910802061
 Au         7.3000000000        2.5287940000       29.3912522588
 Au        11.6800000000       10.1151760000       29.3897019127
 Au         2.9200000000        5.0575880000       29.3909778783
 Au        11.6800000000        5.0575880000       29.3896602114
 Au         5.8400000000        5.0575880000       29.3916853363
 Au        14.6000000000        5.0575880000       29.3908332612
 Au         8.7600000000        5.0575880000       29.3909210180