 420
 i =       82, E =     -3365.3998523447
Au     0.000000     0.000000     0.000000     L3
Au     8.760000     0.000000     0.000000     L3
Au     4.380000     7.586382     0.000000     L3
Au     13.140000     7.586382     0.000000     L3
Au     2.920000     0.000000     0.000000     L3
Au     11.680000     0.000000     0.000000     L3
Au     7.300000     7.586382     0.000000     L3
Au     16.059999     7.586382     0.000000     L3
Au     5.840000     0.000000     0.000000     L3
Au     10.220000     7.586382     0.000000     L3
Au     1.460000     2.528794     0.000000     L3
Au     10.220000     2.528794     0.000000     L3
Au     5.840000     10.115176     0.000000     L3
Au     14.600000     10.115176     0.000000     L3
Au     4.380000     2.528794     0.000000     L3
Au     13.140000     2.528794     0.000000     L3
Au     8.760000     10.115176     0.000000     L3
Au     17.520000     10.115176     0.000000     L3
Au     7.300000     2.528794     0.000000     L3
Au     11.680000     10.115176     0.000000     L3
Au     2.920000     5.057588     0.000000     L3
Au     11.680000     5.057588     0.000000     L3
Au     5.840000     5.057588     0.000000     L3
Au     14.600000     5.057588     0.000000     L3
Au     8.760000     5.057588     0.000000     L3
Au     1.460000     0.842931     2.384170     L3
Au     10.220000     0.842931     2.384170     L3
Au     5.840000     8.429314     2.384170     L3
Au     14.600000     8.429314     2.384170     L3
Au     4.380000     0.842931     2.384170     L3
Au     13.140000     0.842931     2.384170     L3
Au     8.760000     8.429314     2.384170     L3
Au     17.520000     8.429314     2.384170     L3
Au     7.300000     0.842931     2.384170     L3
Au     11.680000     8.429314     2.384170     L3
Au     2.920000     3.371726     2.384170     L3
Au     11.680000     3.371726     2.384170     L3
Au     7.300000     10.958108     2.384170     L3
Au     16.059999     10.958108     2.384170     L3
Au     5.840000     3.371726     2.384170     L3
Au     14.600000     3.371726     2.384170     L3
Au     10.220000     10.958108     2.384170     L3
Au     18.980000     10.958108     2.384170     L3
Au     8.760000     3.371726     2.384170     L3
Au     13.140000     10.958108     2.384170     L3
Au     4.380000     5.900520     2.384170     L3
Au     13.140000     5.900520     2.384170     L3
Au     7.300000     5.900520     2.384170     L3
Au     16.059999     5.900520     2.384170     L3
Au     10.220000     5.900520     2.384170     L3
Au     8.760000     1.685863     4.768340     L3
Au     13.140000     9.272245     4.768340     L3
Au     2.920000     1.685863     4.768340     L3
Au     11.680000     1.685863     4.768340     L3
Au     7.300000     9.272245     4.768340     L3
Au     16.059999     9.272245     4.768340     L3
Au     5.840000     1.685863     4.768340     L3
Au     14.600000     1.685863     4.768340     L3
Au     10.220000     9.272245     4.768340     L3
Au     18.980000     9.272245     4.768340     L3
Au     10.220000     4.214657     4.768340     L3
Au     14.600000     11.801040     4.768340     L3
Au     4.380000     4.214657     4.768340     L3
Au     13.140000     4.214657     4.768340     L3
Au     8.760000     11.801040     4.768340     L3
Au     17.520000     11.801040     4.768340     L3
Au     7.300000     4.214657     4.768340     L3
Au     16.059999     4.214657     4.768340     L3
Au     11.680000     11.801040     4.768340     L3
Au     20.440001     11.801040     4.768340     L3
Au     11.680000     6.743451     4.768340     L3
Au     5.840000     6.743451     4.768340     L3
Au     14.600000     6.743451     4.768340     L3
Au     8.760000     6.743451     4.768340     L3
Au     17.520000     6.743451     4.768340     L3
Au     0.000000     0.000000     7.152510     L2
Au     8.760000     0.000000     7.152510     L2
Au     4.380000     7.586382     7.152510     L2
Au     13.140000     7.586382     7.152510     L2
Au     2.920000     0.000000     7.152510     L2
Au     11.680000     0.000000     7.152510     L2
Au     7.300000     7.586382     7.152510     L2
Au     16.059999     7.586382     7.152510     L2
Au     5.840000     0.000000     7.152510     L2
Au     10.220000     7.586382     7.152510     L2
Au     1.460000     2.528794     7.152510     L2
Au     10.220000     2.528794     7.152510     L2
Au     5.840000     10.115176     7.152510     L2
Au     14.600000     10.115176     7.152510     L2
Au     4.380000     2.528794     7.152510     L2
Au     13.140000     2.528794     7.152510     L2
Au     8.760000     10.115176     7.152510     L2
Au     17.520000     10.115176     7.152510     L2
Au     7.300000     2.528794     7.152510     L2
Au     11.680000     10.115176     7.152510     L2
Au     2.920000     5.057588     7.152510     L2
Au     11.680000     5.057588     7.152510     L2
Au     5.840000     5.057588     7.152510     L2
Au     14.600000     5.057588     7.152510     L2
Au     8.760000     5.057588     7.152510     L2
Au     1.460000     0.842931     9.536680     L2
Au     10.220000     0.842931     9.536680     L2
Au     5.840000     8.429314     9.536680     L2
Au     14.600000     8.429314     9.536680     L2
Au     4.380000     0.842931     9.536680     L2
Au     13.140000     0.842931     9.536680     L2
Au     8.760000     8.429314     9.536680     L2
Au     17.520000     8.429314     9.536680     L2
Au     7.300000     0.842931     9.536680     L2
Au     11.680000     8.429314     9.536680     L2
Au     2.920000     3.371726     9.536680     L2
Au     11.680000     3.371726     9.536680     L2
Au     7.300000     10.958108     9.536680     L2
Au     16.059999     10.958108     9.536680     L2
Au     5.840000     3.371726     9.536680     L2
Au     14.600000     3.371726     9.536680     L2
Au     10.220000     10.958108     9.536680     L2
Au     18.980000     10.958108     9.536680     L2
Au     8.760000     3.371726     9.536680     L2
Au     13.140000     10.958108     9.536680     L2
Au     4.380000     5.900520     9.536680     L2
Au     13.140000     5.900520     9.536680     L2
Au     7.300000     5.900520     9.536680     L2
Au     16.059999     5.900520     9.536680     L2
Au     10.220000     5.900520     9.536680     L2
Au     8.760000     1.685863     11.920850     L2
Au     13.140000     9.272245     11.920850     L2
Au     2.920000     1.685863     11.920850     L2
Au     11.680000     1.685863     11.920850     L2
Au     7.300000     9.272245     11.920850     L2
Au     16.059999     9.272245     11.920850     L2
Au     5.840000     1.685863     11.920850     L2
Au     14.600000     1.685863     11.920850     L2
Au     10.220000     9.272245     11.920850     L2
Au     18.980000     9.272245     11.920850     L2
Au     10.220000     4.214657     11.920850     L2
Au     14.600000     11.801040     11.920850     L2
Au     4.380000     4.214657     11.920850     L2
Au     13.140000     4.214657     11.920850     L2
Au     8.760000     11.801040     11.920850     L2
Au     17.520000     11.801040     11.920850     L2
Au     7.300000     4.214657     11.920850     L2
Au     16.059999     4.214657     11.920850     L2
Au     11.680000     11.801040     11.920850     L2
Au     20.440001     11.801040     11.920850     L2
Au     11.680000     6.743451     11.920850     L2
Au     5.840000     6.743451     11.920850     L2
Au     14.600000     6.743451     11.920850     L2
Au     8.760000     6.743451     11.920850     L2
Au     17.520000     6.743451     11.920850     L2
Au     0.000000     0.000000     14.305019     L1
Au     8.760000     0.000000     14.305019     L1
Au     4.380000     7.586382     14.305019     L1
Au     13.140000     7.586382     14.305019     L1
Au     2.920000     0.000000     14.305019     L1
Au     11.680000     0.000000     14.305019     L1
Au     7.300000     7.586382     14.305019     L1
Au     16.059999     7.586382     14.305019     L1
Au     5.840000     0.000000     14.305019     L1
Au     10.220000     7.586382     14.305019     L1
Au     1.460000     2.528794     14.305019     L1
Au     10.220000     2.528794     14.305019     L1
Au     5.840000     10.115176     14.305019     L1
Au     14.600000     10.115176     14.305019     L1
Au     4.380000     2.528794     14.305019     L1
Au     13.140000     2.528794     14.305019     L1
Au     8.760000     10.115176     14.305019     L1
Au     17.520000     10.115176     14.305019     L1
Au     7.300000     2.528794     14.305019     L1
Au     11.680000     10.115176     14.305019     L1
Au     2.920000     5.057588     14.305019     L1
Au     11.680000     5.057588     14.305019     L1
Au     5.840000     5.057588     14.305019     L1
Au     14.600000     5.057588     14.305019     L1
Au     8.760000     5.057588     14.305019     L1
Au     1.460000     0.842931     16.689190     L1
Au     10.220000     0.842931     16.689190     L1
Au     5.840000     8.429314     16.689190     L1
Au     14.600000     8.429314     16.689190     L1
Au     4.380000     0.842931     16.689190     L1
Au     13.140000     0.842931     16.689190     L1
Au     8.760000     8.429314     16.689190     L1
Au     17.520000     8.429314     16.689190     L1
Au     7.300000     0.842931     16.689190     L1
Au     11.680000     8.429314     16.689190     L1
Au     2.920000     3.371726     16.689190     L1
Au     11.680000     3.371726     16.689190     L1
Au     7.300000     10.958108     16.689190     L1
Au     16.059999     10.958108     16.689190     L1
Au     5.840000     3.371726     16.689190     L1
Au     14.600000     3.371726     16.689190     L1
Au     10.220000     10.958108     16.689190     L1
Au     18.980000     10.958108     16.689190     L1
Au     8.760000     3.371726     16.689190     L1
Au     13.140000     10.958108     16.689190     L1
Au     4.380000     5.900520     16.689190     L1
Au     13.140000     5.900520     16.689190     L1
Au     7.300000     5.900520     16.689190     L1
Au     16.059999     5.900520     16.689190     L1
Au     10.220000     5.900520     16.689190     L1
Au     8.760000     1.685863     19.073360     L1
Au     13.140000     9.272245     19.073360     L1
Au     2.920000     1.685863     19.073360     L1
Au     11.680000     1.685863     19.073360     L1
Au     7.300000     9.272245     19.073360     L1
Au     16.059999     9.272245     19.073360     L1
Au     5.840000     1.685863     19.073360     L1
Au     14.600000     1.685863     19.073360     L1
Au     10.220000     9.272245     19.073360     L1
Au     18.980000     9.272245     19.073360     L1
Au     10.220000     4.214657     19.073360     L1
Au     14.600000     11.801040     19.073360     L1
Au     4.380000     4.214657     19.073360     L1
Au     13.140000     4.214657     19.073360     L1
Au     8.760000     11.801040     19.073360     L1
Au     17.520000     11.801040     19.073360     L1
Au     7.300000     4.214657     19.073360     L1
Au     16.059999     4.214657     19.073360     L1
Au     11.680000     11.801040     19.073360     L1
Au     20.440001     11.801040     19.073360     L1
Au     11.680000     6.743451     19.073360     L1
Au     5.840000     6.743451     19.073360     L1
Au     14.600000     6.743451     19.073360     L1
Au     8.760000     6.743451     19.073360     L1
Au     17.520000     6.743451     19.073360     L1
Au    0.0000000000    0.0000000000    21.2192133967    L0
Au    8.7600000000    0.0000000000    21.2192884134    L0
Au    4.3800000000    7.5863820000    21.2195602717    L0
Au    13.1400000000    7.5863820000    21.2196833344    L0
Au    2.9200000000    0.0000000000    21.2192522282    L0
Au    11.6800000000    0.0000000000    21.2191822028    L0
Au    7.3000000000    7.5863820000    21.2200392097    L0
Au    16.0599990000    7.5863820000    21.2195028946    L0
Au    5.8400000000    0.0000000000    21.2194001027    L0
Au    10.2200000000    7.5863820000    21.2197535372    L0
Au    1.4600000000    2.5287940000    21.2193504795    L0
Au    10.2200000000    2.5287940000    21.2193383659    L0
Au    5.8400000000    10.1151760000    21.2193372971    L0
Au    14.6000000000    10.1151760000    21.219415729    L0
Au    4.3800000000    2.5287940000    21.2195110301    L0
Au    13.1400000000    2.5287940000    21.219044267    L0
Au    8.7600000000    10.1151760000    21.2196375947    L0
Au    17.5200000000    10.1151760000    21.2193231943    L0
Au    7.3000000000    2.5287940000    21.2194998347    L0
Au    11.6800000000    10.1151760000    21.219589948    L0
Au    2.9200000000    5.0575880000    21.2195437827    L0
Au    11.6800000000    5.0575880000    21.2198452949    L0
Au    5.8400000000    5.0575880000    21.2199157427    L0
Au    14.6000000000    5.0575880000    21.2193508041    L0
Au    8.7600000000    5.0575880000    21.2201027435    L0
Au    1.4600000000    0.8429310000    23.8418712469    L0
Au    10.2200000000    0.8429310000    23.8418707456    L0
Au    5.8400000000    8.4293140000    23.8420474023    L0
Au    14.6000000000    8.4293140000    23.8420549975    L0
Au    4.3800000000    0.8429310000    23.8418386599    L0
Au    13.1400000000    0.8429310000    23.8418636905    L0
Au    8.7600000000    8.4293140000    23.8426723377    L0
Au    17.5200000000    8.4293140000    23.8418348973    L0
Au    7.3000000000    0.8429310000    23.8418928831    L0
Au    11.6800000000    8.4293140000    23.8425722826    L0
Au    2.9200000000    3.3717260000    23.8418232318    L0
Au    11.6800000000    3.3717260000    23.8424110879    L0
Au    7.3000000000    10.9581080000    23.8419924551    L0
Au    16.0599990000    10.9581080000    23.8418371086    L0
Au    5.8400000000    3.3717260000    23.8420778597    L0
Au    14.6000000000    3.3717260000    23.8419873131    L0
Au    10.2200000000    10.9581080000    23.8421314359    L0
Au    18.9800000000    10.9581080000    23.8418203531    L0
Au    8.7600000000    3.3717260000    23.8426036402    L0
Au    13.1400000000    10.9581080000    23.8419980629    L0
Au    4.3800000000    5.9005200000    23.8419378533    L0
Au    13.1400000000    5.9005200000    23.8425930239    L0
Au    7.3000000000    5.9005200000    23.8428890831    L0
Au    16.0599990000    5.9005200000    23.8419019827    L0
Au    10.2200000000    5.9005200000    23.8433364181    L0
Au    8.7600000000    1.6858630000    26.4649256831    L0
Au    13.1400000000    9.2722450000    26.4647195455    L0
Au    2.9200000000    1.6858630000    26.4645382593    L0
Au    11.6800000000    1.6858630000    26.4650251801    L0
Au    7.3000000000    9.2722450000    26.4649651075    L0
Au    16.0599990000    9.2722450000    26.4645377354    L0
Au    5.8400000000    1.6858630000    26.464476819799998    L0
Au    14.6000000000    1.6858630000    26.4646944253    L0
Au    10.2200000000    9.2722450000    26.465815101300002    L0
Au    18.9800000000    9.2722450000    26.4645285019    L0
Au    10.2200000000    4.2146570000    26.4669451568    L0
Au    14.6000000000    11.8010400000    26.4645865688    L0
Au    4.3800000000    4.2146570000    26.4643685827    L0
Au    13.1400000000    4.2146570000    26.4656259789    L0
Au    8.7600000000    11.8010400000    26.4648137562    L0
Au    17.5200000000    11.8010400000    26.4646141411    L0
Au    7.3000000000    4.2146570000    26.4654490675    L0
Au    16.0599990000    4.2146570000    26.4645057159    L0
Au    11.6800000000    11.8010400000    26.464713709999998    L0
Au    20.4400010000    11.8010400000    26.4646832175    L0
Au    11.6800000000    6.7434510000    26.4670466964    L0
Au    5.8400000000    6.7434510000    26.4646667226    L0
Au    14.6000000000    6.7434510000    26.4647492727    L0
Au    8.7600000000    6.7434510000    26.466955768200002    L0
Au    17.5200000000    6.7434510000    26.4644319175    L0
C    10.1247824839    5.8109265596    31.2690461642    S
C    10.1618426271    4.7189692723    32.1404647364    S
C    9.7907615793    4.8762913795    33.4784703024    S
C    9.3762447216    6.1226099241    33.9730208896    S
C    9.7115161808    7.0578218775    31.746301995    S
C    9.3416303849    7.2090440221    33.0850747103    S
C    10.7172829745    7.4691876588    40.098951539699996    S
H    9.8167626935    4.0159716379    34.1516219422    S
H    10.4107179731    5.6900817657    30.2231907894    S
H    9.6729648654    7.9149472103    31.072325803200002    S
H    9.0142121520    8.1858805980    33.448702229    S
H    10.4764823858    3.7396209165    31.7765589762    S
C    10.7461559412    6.3851049689    40.989913844499995    S
C    10.3733966226    6.5412319671    42.3273485196    S
C    9.9629253672    7.7907384553    42.8001106815    S
C    9.9317248096    8.8804555054    41.9255689892    S
C    10.3057697825    8.7181859017    40.5890573772    S
H    10.4074651868    5.6858515741    43.0037557399    S
H    11.0713038347    5.4061662076    40.6298043624    S
H    9.6194645567    9.8618059415    42.2859345635    S
H    10.2843739168    9.5767531530    39.9134583406    S
H    9.6747037564    7.9153533964    43.8448542713    S
C    9.0204658048    6.3005982742    35.4301027583    S
C    11.0755827609    7.2861840383    38.643054907199996    S
C    9.8679773557    6.8885985331    37.7736170292    S
C    10.2282774940    6.6998493918    36.2984859491    S
H    9.0854160517    7.6596176380    37.8708803818    S
H    9.4283643280    5.9590588335    38.1723872952    S
H    10.6665272359    7.6298483138    35.899363588599996    S
H    11.0116996224    5.9297274096    36.2010349071    S
H    8.5898148375    5.3652606299    35.8225671724    S
H    8.2383977570    7.0707752348    35.5280433612    S
H    11.8554094151    6.5133016208    38.5486102357    S
H    11.5099055420    8.2191908137    38.2490453394    S
Au    8.7600020000    1.6858630000    47.6038324461    R0
Au    13.1400000000    9.2722460000    47.6029064752    R0
Au    2.9200000000    1.6858630000    47.603777578700004    R0
Au    11.6800000000    1.6858630000    47.6036873992    R0
Au    7.3000000000    9.2722460000    47.6022216322    R0
Au    16.0599990000    9.2722460000    47.6039739215    R0
Au    5.8400010000    1.6858630000    47.6038384465    R0
Au    14.6000000000    1.6858630000    47.6037092086    R0
Au    10.2200000000    9.2722460000    47.600909731499996    R0
Au    18.9800000000    9.2722460000    47.6038482566    R0
Au    10.2200010000    4.2146570000    47.602381083    R0
Au    14.6000000000    11.8010400000    47.6039125943    R0
Au    4.3800000000    4.2146570000    47.6038824371    R0
Au    13.1400000000    4.2146570000    47.6034264089    R0
Au    8.7600000000    11.8010400000    47.6029723556    R0
Au    17.5200000000    11.8010400000    47.6038486833    R0
Au    7.3000000000    4.2146570000    47.6036495533    R0
Au    16.0599990000    4.2146570000    47.6038878082    R0
Au    11.6800000000    11.8010400000    47.6033506641    R0
Au    20.4400010000    11.8010400000    47.6036634305    R0
Au    11.6800000000    6.7434510000    47.6014327607    R0
Au    5.8400000000    6.7434510000    47.603631034399996    R0
Au    14.6000000000    6.7434510000    47.6038002199    R0
Au    8.7600000000    6.7434510000    47.6010442827    R0
Au    17.5200000000    6.7434510000    47.603965302700004    R0
Au    1.4600000000    0.8429310000    50.2260530322    R0
Au    10.2200000000    0.8429310000    50.2261016833    R0
Au    5.8400010000    8.4293140000    50.2257658148    R0
Au    14.6000000000    8.4293140000    50.2257751157    R0
Au    4.3800000000    0.8429310000    50.226037992100004    R0
Au    13.1400010000    0.8429310000    50.2260550083    R0
Au    8.7600000000    8.4293140000    50.2250558797    R0
Au    17.5200000000    8.4293140000    50.2260762535    R0
Au    7.3000010000    0.8429310000    50.226078761500005    R0
Au    11.6800000000    8.4293140000    50.224883509099996    R0
Au    2.9200000000    3.3717260000    50.2261057209    R0
Au    11.6800010000    3.3717260000    50.2259137364    R0
Au    7.3000000000    10.9581090000    50.2257973739    R0
Au    16.0599980000    10.9581090000    50.2260875518    R0
Au    5.8400000000    3.3717260000    50.226013043500004    R0
Au    14.6000000000    3.3717260000    50.2260328738    R0
Au    10.2200000000    10.9581090000    50.2254688295    R0
Au    18.9800000000    10.9581090000    50.2260594736    R0
Au    8.7600000000    3.3717260000    50.2259191796    R0
Au    13.1399990000    10.9581090000    50.2257627046    R0
Au    4.3800000000    5.9005200000    50.2260114797    R0
Au    13.1400000000    5.9005200000    50.2254734904    R0
Au    7.3000000000    5.9005200000    50.2255250007    R0
Au    16.0599990000    5.9005200000    50.2260474512    R0
Au    10.2200000000    5.9005200000    50.2251206329    R0
Au    0.0000000000    0.0000000000    52.8485789402    R0
Au    8.7600000000    0.0000000000    52.8483980699    R0
Au    4.3800000000    7.5863820000    52.8482413459    R0
Au    13.1399990000    7.5863820000    52.8479809923    R0
Au    2.9200000000    0.0000000000    52.8485524655    R0
Au    11.6800000000    0.0000000000    52.848482581599995    R0
Au    7.3000000000    7.5863820000    52.8484178597    R0
Au    16.0599990000    7.5863820000    52.848058694    R0
Au    5.8400000000    0.0000000000    52.848251229599995    R0
Au    10.2200000000    7.5863820000    52.848124867799996    R0
Au    1.4600000000    2.5287940000    52.8484714139    R0
Au    10.2200000000    2.5287940000    52.848462650200005    R0
Au    5.8400000000    10.1151760000    52.8484390422    R0
Au    14.6000000000    10.1151760000    52.8479985213    R0
Au    4.3800000000    2.5287940000    52.848341222    R0
Au    13.1400000000    2.5287940000    52.8485086493    R0
Au    8.7600000000    10.1151760000    52.848507664799996    R0
Au    17.5200000000    10.1151760000    52.848300765800005    R0
Au    7.3000000000    2.5287940000    52.8483828396    R0
Au    11.6800000000    10.1151760000    52.848151118800004    R0
Au    2.9200000000    5.0575880000    52.8482710642    R0
Au    11.6800000000    5.0575880000    52.848421135799995    R0
Au    5.8400000000    5.0575880000    52.848322374199995    R0
Au    14.6000000000    5.0575880000    52.8481859055    R0
Au    8.7600000000    5.0575880000    52.8484415351    R0
Au    8.760002    1.685863   54.994628599488664 R1
Au   13.140000    9.272246   54.994628599488664 R1
Au    2.920000    1.685863   54.994628599488664 R1
Au   11.680000    1.685863   54.994628599488664 R1
Au    7.300000    9.272246   54.994628599488664 R1
Au   16.059999    9.272246   54.994628599488664 R1
Au    5.840001    1.685863   54.994628599488664 R1
Au   14.600000    1.685863   54.994628599488664 R1
Au   10.220000    9.272246   54.994628599488664 R1
Au   18.980000    9.272246   54.994628599488664 R1
Au   10.220001    4.214657   54.994628599488664 R1
Au   14.600000   11.801040   54.994628599488664 R1
Au    4.380000    4.214657   54.994628599488664 R1
Au   13.140000    4.214657   54.994628599488664 R1
Au    8.760000   11.801040   54.994628599488664 R1
Au   17.520000   11.801040   54.994628599488664 R1
Au    7.300000    4.214657   54.994628599488664 R1
Au   16.059999    4.214657   54.994628599488664 R1
Au   11.680000   11.801040   54.994628599488664 R1
Au   20.440001   11.801040   54.994628599488664 R1
Au   11.680000    6.743451   54.994628599488664 R1
Au    5.840000    6.743451   54.994628599488664 R1
Au   14.600000    6.743451   54.994628599488664 R1
Au    8.760000    6.743451   54.994628599488664 R1
Au   17.520000    6.743451   54.994628599488664 R1
Au    1.460000    0.842931   57.37879859948866 R1
Au   10.220000    0.842931   57.37879859948866 R1
Au    5.840001    8.429314   57.37879859948866 R1
Au   14.600000    8.429314   57.37879859948866 R1
Au    4.380000    0.842931   57.37879859948866 R1
Au   13.140001    0.842931   57.37879859948866 R1
Au    8.760000    8.429314   57.37879859948866 R1
Au   17.520000    8.429314   57.37879859948866 R1
Au    7.300001    0.842931   57.37879859948866 R1
Au   11.680000    8.429314   57.37879859948866 R1
Au    2.920000    3.371726   57.37879859948866 R1
Au   11.680001    3.371726   57.37879859948866 R1
Au    7.300000   10.958109   57.37879859948866 R1
Au   16.059998   10.958109   57.37879859948866 R1
Au    5.840000    3.371726   57.37879859948866 R1
Au   14.600000    3.371726   57.37879859948866 R1
Au   10.220000   10.958109   57.37879859948866 R1
Au   18.980000   10.958109   57.37879859948866 R1
Au    8.760000    3.371726   57.37879859948866 R1
Au   13.139999   10.958109   57.37879859948866 R1
Au    4.380000    5.900520   57.37879859948866 R1
Au   13.140000    5.900520   57.37879859948866 R1
Au    7.300000    5.900520   57.37879859948866 R1
Au   16.059999    5.900520   57.37879859948866 R1
Au   10.220000    5.900520   57.37879859948866 R1
Au    0.000000    0.000000   59.762968599488666 R1
Au    8.760000    0.000000   59.762968599488666 R1
Au    4.380000    7.586382   59.762968599488666 R1
Au   13.139999    7.586382   59.762968599488666 R1
Au    2.920000    0.000000   59.762968599488666 R1
Au   11.680000    0.000000   59.762968599488666 R1
Au    7.300000    7.586382   59.762968599488666 R1
Au   16.059999    7.586382   59.762968599488666 R1
Au    5.840000    0.000000   59.762968599488666 R1
Au   10.220000    7.586382   59.762968599488666 R1
Au    1.460000    2.528794   59.762968599488666 R1
Au   10.220000    2.528794   59.762968599488666 R1
Au    5.840000   10.115176   59.762968599488666 R1
Au   14.600000   10.115176   59.762968599488666 R1
Au    4.380000    2.528794   59.762968599488666 R1
Au   13.140000    2.528794   59.762968599488666 R1
Au    8.760000   10.115176   59.762968599488666 R1
Au   17.520000   10.115176   59.762968599488666 R1
Au    7.300000    2.528794   59.762968599488666 R1
Au   11.680000   10.115176   59.762968599488666 R1
Au    2.920000    5.057588   59.762968599488666 R1
Au   11.680000    5.057588   59.762968599488666 R1
Au    5.840000    5.057588   59.762968599488666 R1
Au   14.600000    5.057588   59.762968599488666 R1
Au    8.760000    5.057588   59.762968599488666 R1
Au    8.760002    1.685863   62.14713859948866 R2
Au   13.140000    9.272246   62.14713859948866 R2
Au    2.920000    1.685863   62.14713859948866 R2
Au   11.680000    1.685863   62.14713859948866 R2
Au    7.300000    9.272246   62.14713859948866 R2
Au   16.059999    9.272246   62.14713859948866 R2
Au    5.840001    1.685863   62.14713859948866 R2
Au   14.600000    1.685863   62.14713859948866 R2
Au   10.220000    9.272246   62.14713859948866 R2
Au   18.980000    9.272246   62.14713859948866 R2
Au   10.220001    4.214657   62.14713859948866 R2
Au   14.600000   11.801040   62.14713859948866 R2
Au    4.380000    4.214657   62.14713859948866 R2
Au   13.140000    4.214657   62.14713859948866 R2
Au    8.760000   11.801040   62.14713859948866 R2
Au   17.520000   11.801040   62.14713859948866 R2
Au    7.300000    4.214657   62.14713859948866 R2
Au   16.059999    4.214657   62.14713859948866 R2
Au   11.680000   11.801040   62.14713859948866 R2
Au   20.440001   11.801040   62.14713859948866 R2
Au   11.680000    6.743451   62.14713859948866 R2
Au    5.840000    6.743451   62.14713859948866 R2
Au   14.600000    6.743451   62.14713859948866 R2
Au    8.760000    6.743451   62.14713859948866 R2
Au   17.520000    6.743451   62.14713859948866 R2
Au    1.460000    0.842931   64.53130859948867 R2
Au   10.220000    0.842931   64.53130859948867 R2
Au    5.840001    8.429314   64.53130859948867 R2
Au   14.600000    8.429314   64.53130859948867 R2
Au    4.380000    0.842931   64.53130859948867 R2
Au   13.140001    0.842931   64.53130859948867 R2
Au    8.760000    8.429314   64.53130859948867 R2
Au   17.520000    8.429314   64.53130859948867 R2
Au    7.300001    0.842931   64.53130859948867 R2
Au   11.680000    8.429314   64.53130859948867 R2
Au    2.920000    3.371726   64.53130859948867 R2
Au   11.680001    3.371726   64.53130859948867 R2
Au    7.300000   10.958109   64.53130859948867 R2
Au   16.059998   10.958109   64.53130859948867 R2
Au    5.840000    3.371726   64.53130859948867 R2
Au   14.600000    3.371726   64.53130859948867 R2
Au   10.220000   10.958109   64.53130859948867 R2
Au   18.980000   10.958109   64.53130859948867 R2
Au    8.760000    3.371726   64.53130859948867 R2
Au   13.139999   10.958109   64.53130859948867 R2
Au    4.380000    5.900520   64.53130859948867 R2
Au   13.140000    5.900520   64.53130859948867 R2
Au    7.300000    5.900520   64.53130859948867 R2
Au   16.059999    5.900520   64.53130859948867 R2
Au   10.220000    5.900520   64.53130859948867 R2
Au    0.000000    0.000000   66.91547859948867 R2
Au    8.760000    0.000000   66.91547859948867 R2
Au    4.380000    7.586382   66.91547859948867 R2
Au   13.139999    7.586382   66.91547859948867 R2
Au    2.920000    0.000000   66.91547859948867 R2
Au   11.680000    0.000000   66.91547859948867 R2
Au    7.300000    7.586382   66.91547859948867 R2
Au   16.059999    7.586382   66.91547859948867 R2
Au    5.840000    0.000000   66.91547859948867 R2
Au   10.220000    7.586382   66.91547859948867 R2
Au    1.460000    2.528794   66.91547859948867 R2
Au   10.220000    2.528794   66.91547859948867 R2
Au    5.840000   10.115176   66.91547859948867 R2
Au   14.600000   10.115176   66.91547859948867 R2
Au    4.380000    2.528794   66.91547859948867 R2
Au   13.140000    2.528794   66.91547859948867 R2
Au    8.760000   10.115176   66.91547859948867 R2
Au   17.520000   10.115176   66.91547859948867 R2
Au    7.300000    2.528794   66.91547859948867 R2
Au   11.680000   10.115176   66.91547859948867 R2
Au    2.920000    5.057588   66.91547859948867 R2
Au   11.680000    5.057588   66.91547859948867 R2
Au    5.840000    5.057588   66.91547859948867 R2
Au   14.600000    5.057588   66.91547859948867 R2
Au    8.760000    5.057588   66.91547859948867 R2
Au    8.760002    1.685863   69.29964859948866 R3
Au   13.140000    9.272246   69.29964859948866 R3
Au    2.920000    1.685863   69.29964859948866 R3
Au   11.680000    1.685863   69.29964859948866 R3
Au    7.300000    9.272246   69.29964859948866 R3
Au   16.059999    9.272246   69.29964859948866 R3
Au    5.840001    1.685863   69.29964859948866 R3
Au   14.600000    1.685863   69.29964859948866 R3
Au   10.220000    9.272246   69.29964859948866 R3
Au   18.980000    9.272246   69.29964859948866 R3
Au   10.220001    4.214657   69.29964859948866 R3
Au   14.600000   11.801040   69.29964859948866 R3
Au    4.380000    4.214657   69.29964859948866 R3
Au   13.140000    4.214657   69.29964859948866 R3
Au    8.760000   11.801040   69.29964859948866 R3
Au   17.520000   11.801040   69.29964859948866 R3
Au    7.300000    4.214657   69.29964859948866 R3
Au   16.059999    4.214657   69.29964859948866 R3
Au   11.680000   11.801040   69.29964859948866 R3
Au   20.440001   11.801040   69.29964859948866 R3
Au   11.680000    6.743451   69.29964859948866 R3
Au    5.840000    6.743451   69.29964859948866 R3
Au   14.600000    6.743451   69.29964859948866 R3
Au    8.760000    6.743451   69.29964859948866 R3
Au   17.520000    6.743451   69.29964859948866 R3
Au    1.460000    0.842931   71.68381859948866 R3
Au   10.220000    0.842931   71.68381859948866 R3
Au    5.840001    8.429314   71.68381859948866 R3
Au   14.600000    8.429314   71.68381859948866 R3
Au    4.380000    0.842931   71.68381859948866 R3
Au   13.140001    0.842931   71.68381859948866 R3
Au    8.760000    8.429314   71.68381859948866 R3
Au   17.520000    8.429314   71.68381859948866 R3
Au    7.300001    0.842931   71.68381859948866 R3
Au   11.680000    8.429314   71.68381859948866 R3
Au    2.920000    3.371726   71.68381859948866 R3
Au   11.680001    3.371726   71.68381859948866 R3
Au    7.300000   10.958109   71.68381859948866 R3
Au   16.059998   10.958109   71.68381859948866 R3
Au    5.840000    3.371726   71.68381859948866 R3
Au   14.600000    3.371726   71.68381859948866 R3
Au   10.220000   10.958109   71.68381859948866 R3
Au   18.980000   10.958109   71.68381859948866 R3
Au    8.760000    3.371726   71.68381859948866 R3
Au   13.139999   10.958109   71.68381859948866 R3
Au    4.380000    5.900520   71.68381859948866 R3
Au   13.140000    5.900520   71.68381859948866 R3
Au    7.300000    5.900520   71.68381859948866 R3
Au   16.059999    5.900520   71.68381859948866 R3
Au   10.220000    5.900520   71.68381859948866 R3
Au    0.000000    0.000000   74.06798859948866 R3
Au    8.760000    0.000000   74.06798859948866 R3
Au    4.380000    7.586382   74.06798859948866 R3
Au   13.139999    7.586382   74.06798859948866 R3
Au    2.920000    0.000000   74.06798859948866 R3
Au   11.680000    0.000000   74.06798859948866 R3
Au    7.300000    7.586382   74.06798859948866 R3
Au   16.059999    7.586382   74.06798859948866 R3
Au    5.840000    0.000000   74.06798859948866 R3
Au   10.220000    7.586382   74.06798859948866 R3
Au    1.460000    2.528794   74.06798859948866 R3
Au   10.220000    2.528794   74.06798859948866 R3
Au    5.840000   10.115176   74.06798859948866 R3
Au   14.600000   10.115176   74.06798859948866 R3
Au    4.380000    2.528794   74.06798859948866 R3
Au   13.140000    2.528794   74.06798859948866 R3
Au    8.760000   10.115176   74.06798859948866 R3
Au   17.520000   10.115176   74.06798859948866 R3
Au    7.300000    2.528794   74.06798859948866 R3
Au   11.680000   10.115176   74.06798859948866 R3
Au    2.920000    5.057588   74.06798859948866 R3
Au   11.680000    5.057588   74.06798859948866 R3
Au    5.840000    5.057588   74.06798859948866 R3
Au   14.600000    5.057588   74.06798859948866 R3
Au    8.760000    5.057588   74.06798859948866 R3
