 420
 i =       82, E =     -3365.3998523447
Au     0.000000     0.000000     0.000000     L3
Au     8.760000     0.000000     0.000000     L3
Au     4.380000     7.586382     0.000000     L3
Au     13.140000     7.586382     0.000000     L3
Au     2.920000     0.000000     0.000000     L3
Au     11.680000     0.000000     0.000000     L3
Au     7.300000     7.586382     0.000000     L3
Au     16.059999     7.586382     0.000000     L3
Au     5.840000     0.000000     0.000000     L3
Au     10.220000     7.586382     0.000000     L3
Au     1.460000     2.528794     0.000000     L3
Au     10.220000     2.528794     0.000000     L3
Au     5.840000     10.115176     0.000000     L3
Au     14.600000     10.115176     0.000000     L3
Au     4.380000     2.528794     0.000000     L3
Au     13.140000     2.528794     0.000000     L3
Au     8.760000     10.115176     0.000000     L3
Au     17.520000     10.115176     0.000000     L3
Au     7.300000     2.528794     0.000000     L3
Au     11.680000     10.115176     0.000000     L3
Au     2.920000     5.057588     0.000000     L3
Au     11.680000     5.057588     0.000000     L3
Au     5.840000     5.057588     0.000000     L3
Au     14.600000     5.057588     0.000000     L3
Au     8.760000     5.057588     0.000000     L3
Au     1.460000     0.842931     2.384170     L3
Au     10.220000     0.842931     2.384170     L3
Au     5.840000     8.429314     2.384170     L3
Au     14.600000     8.429314     2.384170     L3
Au     4.380000     0.842931     2.384170     L3
Au     13.140000     0.842931     2.384170     L3
Au     8.760000     8.429314     2.384170     L3
Au     17.520000     8.429314     2.384170     L3
Au     7.300000     0.842931     2.384170     L3
Au     11.680000     8.429314     2.384170     L3
Au     2.920000     3.371726     2.384170     L3
Au     11.680000     3.371726     2.384170     L3
Au     7.300000     10.958108     2.384170     L3
Au     16.059999     10.958108     2.384170     L3
Au     5.840000     3.371726     2.384170     L3
Au     14.600000     3.371726     2.384170     L3
Au     10.220000     10.958108     2.384170     L3
Au     18.980000     10.958108     2.384170     L3
Au     8.760000     3.371726     2.384170     L3
Au     13.140000     10.958108     2.384170     L3
Au     4.380000     5.900520     2.384170     L3
Au     13.140000     5.900520     2.384170     L3
Au     7.300000     5.900520     2.384170     L3
Au     16.059999     5.900520     2.384170     L3
Au     10.220000     5.900520     2.384170     L3
Au     8.760000     1.685863     4.768340     L3
Au     13.140000     9.272245     4.768340     L3
Au     2.920000     1.685863     4.768340     L3
Au     11.680000     1.685863     4.768340     L3
Au     7.300000     9.272245     4.768340     L3
Au     16.059999     9.272245     4.768340     L3
Au     5.840000     1.685863     4.768340     L3
Au     14.600000     1.685863     4.768340     L3
Au     10.220000     9.272245     4.768340     L3
Au     18.980000     9.272245     4.768340     L3
Au     10.220000     4.214657     4.768340     L3
Au     14.600000     11.801040     4.768340     L3
Au     4.380000     4.214657     4.768340     L3
Au     13.140000     4.214657     4.768340     L3
Au     8.760000     11.801040     4.768340     L3
Au     17.520000     11.801040     4.768340     L3
Au     7.300000     4.214657     4.768340     L3
Au     16.059999     4.214657     4.768340     L3
Au     11.680000     11.801040     4.768340     L3
Au     20.440001     11.801040     4.768340     L3
Au     11.680000     6.743451     4.768340     L3
Au     5.840000     6.743451     4.768340     L3
Au     14.600000     6.743451     4.768340     L3
Au     8.760000     6.743451     4.768340     L3
Au     17.520000     6.743451     4.768340     L3
Au     0.000000     0.000000     7.152510     L2
Au     8.760000     0.000000     7.152510     L2
Au     4.380000     7.586382     7.152510     L2
Au     13.140000     7.586382     7.152510     L2
Au     2.920000     0.000000     7.152510     L2
Au     11.680000     0.000000     7.152510     L2
Au     7.300000     7.586382     7.152510     L2
Au     16.059999     7.586382     7.152510     L2
Au     5.840000     0.000000     7.152510     L2
Au     10.220000     7.586382     7.152510     L2
Au     1.460000     2.528794     7.152510     L2
Au     10.220000     2.528794     7.152510     L2
Au     5.840000     10.115176     7.152510     L2
Au     14.600000     10.115176     7.152510     L2
Au     4.380000     2.528794     7.152510     L2
Au     13.140000     2.528794     7.152510     L2
Au     8.760000     10.115176     7.152510     L2
Au     17.520000     10.115176     7.152510     L2
Au     7.300000     2.528794     7.152510     L2
Au     11.680000     10.115176     7.152510     L2
Au     2.920000     5.057588     7.152510     L2
Au     11.680000     5.057588     7.152510     L2
Au     5.840000     5.057588     7.152510     L2
Au     14.600000     5.057588     7.152510     L2
Au     8.760000     5.057588     7.152510     L2
Au     1.460000     0.842931     9.536680     L2
Au     10.220000     0.842931     9.536680     L2
Au     5.840000     8.429314     9.536680     L2
Au     14.600000     8.429314     9.536680     L2
Au     4.380000     0.842931     9.536680     L2
Au     13.140000     0.842931     9.536680     L2
Au     8.760000     8.429314     9.536680     L2
Au     17.520000     8.429314     9.536680     L2
Au     7.300000     0.842931     9.536680     L2
Au     11.680000     8.429314     9.536680     L2
Au     2.920000     3.371726     9.536680     L2
Au     11.680000     3.371726     9.536680     L2
Au     7.300000     10.958108     9.536680     L2
Au     16.059999     10.958108     9.536680     L2
Au     5.840000     3.371726     9.536680     L2
Au     14.600000     3.371726     9.536680     L2
Au     10.220000     10.958108     9.536680     L2
Au     18.980000     10.958108     9.536680     L2
Au     8.760000     3.371726     9.536680     L2
Au     13.140000     10.958108     9.536680     L2
Au     4.380000     5.900520     9.536680     L2
Au     13.140000     5.900520     9.536680     L2
Au     7.300000     5.900520     9.536680     L2
Au     16.059999     5.900520     9.536680     L2
Au     10.220000     5.900520     9.536680     L2
Au     8.760000     1.685863     11.920850     L2
Au     13.140000     9.272245     11.920850     L2
Au     2.920000     1.685863     11.920850     L2
Au     11.680000     1.685863     11.920850     L2
Au     7.300000     9.272245     11.920850     L2
Au     16.059999     9.272245     11.920850     L2
Au     5.840000     1.685863     11.920850     L2
Au     14.600000     1.685863     11.920850     L2
Au     10.220000     9.272245     11.920850     L2
Au     18.980000     9.272245     11.920850     L2
Au     10.220000     4.214657     11.920850     L2
Au     14.600000     11.801040     11.920850     L2
Au     4.380000     4.214657     11.920850     L2
Au     13.140000     4.214657     11.920850     L2
Au     8.760000     11.801040     11.920850     L2
Au     17.520000     11.801040     11.920850     L2
Au     7.300000     4.214657     11.920850     L2
Au     16.059999     4.214657     11.920850     L2
Au     11.680000     11.801040     11.920850     L2
Au     20.440001     11.801040     11.920850     L2
Au     11.680000     6.743451     11.920850     L2
Au     5.840000     6.743451     11.920850     L2
Au     14.600000     6.743451     11.920850     L2
Au     8.760000     6.743451     11.920850     L2
Au     17.520000     6.743451     11.920850     L2
Au     0.000000     0.000000     14.305019     L1
Au     8.760000     0.000000     14.305019     L1
Au     4.380000     7.586382     14.305019     L1
Au     13.140000     7.586382     14.305019     L1
Au     2.920000     0.000000     14.305019     L1
Au     11.680000     0.000000     14.305019     L1
Au     7.300000     7.586382     14.305019     L1
Au     16.059999     7.586382     14.305019     L1
Au     5.840000     0.000000     14.305019     L1
Au     10.220000     7.586382     14.305019     L1
Au     1.460000     2.528794     14.305019     L1
Au     10.220000     2.528794     14.305019     L1
Au     5.840000     10.115176     14.305019     L1
Au     14.600000     10.115176     14.305019     L1
Au     4.380000     2.528794     14.305019     L1
Au     13.140000     2.528794     14.305019     L1
Au     8.760000     10.115176     14.305019     L1
Au     17.520000     10.115176     14.305019     L1
Au     7.300000     2.528794     14.305019     L1
Au     11.680000     10.115176     14.305019     L1
Au     2.920000     5.057588     14.305019     L1
Au     11.680000     5.057588     14.305019     L1
Au     5.840000     5.057588     14.305019     L1
Au     14.600000     5.057588     14.305019     L1
Au     8.760000     5.057588     14.305019     L1
Au     1.460000     0.842931     16.689190     L1
Au     10.220000     0.842931     16.689190     L1
Au     5.840000     8.429314     16.689190     L1
Au     14.600000     8.429314     16.689190     L1
Au     4.380000     0.842931     16.689190     L1
Au     13.140000     0.842931     16.689190     L1
Au     8.760000     8.429314     16.689190     L1
Au     17.520000     8.429314     16.689190     L1
Au     7.300000     0.842931     16.689190     L1
Au     11.680000     8.429314     16.689190     L1
Au     2.920000     3.371726     16.689190     L1
Au     11.680000     3.371726     16.689190     L1
Au     7.300000     10.958108     16.689190     L1
Au     16.059999     10.958108     16.689190     L1
Au     5.840000     3.371726     16.689190     L1
Au     14.600000     3.371726     16.689190     L1
Au     10.220000     10.958108     16.689190     L1
Au     18.980000     10.958108     16.689190     L1
Au     8.760000     3.371726     16.689190     L1
Au     13.140000     10.958108     16.689190     L1
Au     4.380000     5.900520     16.689190     L1
Au     13.140000     5.900520     16.689190     L1
Au     7.300000     5.900520     16.689190     L1
Au     16.059999     5.900520     16.689190     L1
Au     10.220000     5.900520     16.689190     L1
Au     8.760000     1.685863     19.073360     L1
Au     13.140000     9.272245     19.073360     L1
Au     2.920000     1.685863     19.073360     L1
Au     11.680000     1.685863     19.073360     L1
Au     7.300000     9.272245     19.073360     L1
Au     16.059999     9.272245     19.073360     L1
Au     5.840000     1.685863     19.073360     L1
Au     14.600000     1.685863     19.073360     L1
Au     10.220000     9.272245     19.073360     L1
Au     18.980000     9.272245     19.073360     L1
Au     10.220000     4.214657     19.073360     L1
Au     14.600000     11.801040     19.073360     L1
Au     4.380000     4.214657     19.073360     L1
Au     13.140000     4.214657     19.073360     L1
Au     8.760000     11.801040     19.073360     L1
Au     17.520000     11.801040     19.073360     L1
Au     7.300000     4.214657     19.073360     L1
Au     16.059999     4.214657     19.073360     L1
Au     11.680000     11.801040     19.073360     L1
Au     20.440001     11.801040     19.073360     L1
Au     11.680000     6.743451     19.073360     L1
Au     5.840000     6.743451     19.073360     L1
Au     14.600000     6.743451     19.073360     L1
Au     8.760000     6.743451     19.073360     L1
Au     17.520000     6.743451     19.073360     L1
Au    0.0000000000    0.0000000000    21.2194685855    L0
Au    8.7600000000    0.0000000000    21.2195543206    L0
Au    4.3800000000    7.5863820000    21.2197207349    L0
Au    13.1400000000    7.5863820000    21.2191758803    L0
Au    2.9200000000    0.0000000000    21.2194711337    L0
Au    11.6800000000    0.0000000000    21.2194755762    L0
Au    7.3000000000    7.5863820000    21.2191720216    L0
Au    16.0599990000    7.5863820000    21.219655489    L0
Au    5.8400000000    0.0000000000    21.2195933867    L0
Au    10.2200000000    7.5863820000    21.2187619885    L0
Au    1.4600000000    2.5287940000    21.2195671041    L0
Au    10.2200000000    2.5287940000    21.2190645082    L0
Au    5.8400000000    10.1151760000    21.2195500703    L0
Au    14.6000000000    10.1151760000    21.2195785677    L0
Au    4.3800000000    2.5287940000    21.2196879788    L0
Au    13.1400000000    2.5287940000    21.2193653422    L0
Au    8.7600000000    10.1151760000    21.2191598863    L0
Au    17.5200000000    10.1151760000    21.2195657541    L0
Au    7.3000000000    2.5287940000    21.2195576067    L0
Au    11.6800000000    10.1151760000    21.2192763188    L0
Au    2.9200000000    5.0575880000    21.2197235838    L0
Au    11.6800000000    5.0575880000    21.2188503512    L0
Au    5.8400000000    5.0575880000    21.219741452    L0
Au    14.6000000000    5.0575880000    21.2195031682    L0
Au    8.7600000000    5.0575880000    21.2189914441    L0
Au    1.4600000000    0.8429310000    23.8421062537    L0
Au    10.2200000000    0.8429310000    23.842092164    L0
Au    5.8400000000    8.4293140000    23.842147702200002    L0
Au    14.6000000000    8.4293140000    23.8421750274    L0
Au    4.3800000000    0.8429310000    23.8421000875    L0
Au    13.1400000000    0.8429310000    23.8421196434    L0
Au    8.7600000000    8.4293140000    23.8421103151    L0
Au    17.5200000000    8.4293140000    23.8421001948    L0
Au    7.3000000000    0.8429310000    23.842132482300002    L0
Au    11.6800000000    8.4293140000    23.842123592    L0
Au    2.9200000000    3.3717260000    23.842103239    L0
Au    11.6800000000    3.3717260000    23.8421256828    L0
Au    7.3000000000    10.9581080000    23.842107895    L0
Au    16.0599990000    10.9581080000    23.8420965448    L0
Au    5.8400000000    3.3717260000    23.8422154098    L0
Au    14.6000000000    3.3717260000    23.842173847    L0
Au    10.2200000000    10.9581080000    23.8420905581    L0
Au    18.9800000000    10.9581080000    23.8420877585    L0
Au    8.7600000000    3.3717260000    23.8421966421    L0
Au    13.1400000000    10.9581080000    23.8421385666    L0
Au    4.3800000000    5.9005200000    23.8421619097    L0
Au    13.1400000000    5.9005200000    23.8422046955    L0
Au    7.3000000000    5.9005200000    23.8422912306    L0
Au    16.0599990000    5.9005200000    23.8421495334    L0
Au    10.2200000000    5.9005200000    23.8422288835    L0
Au    8.7600000000    1.6858630000    26.464555208    L0
Au    13.1400000000    9.2722450000    26.4646791153    L0
Au    2.9200000000    1.6858630000    26.4644367073    L0
Au    11.6800000000    1.6858630000    26.464595035400002    L0
Au    7.3000000000    9.2722450000    26.4647969845    L0
Au    16.0599990000    9.2722450000    26.4644359917    L0
Au    5.8400000000    1.6858630000    26.4644076163    L0
Au    14.6000000000    1.6858630000    26.4645315838    L0
Au    10.2200000000    9.2722450000    26.465310768800002    L0
Au    18.9800000000    9.2722450000    26.4644213122    L0
Au    10.2200000000    4.2146570000    26.466009819299998    L0
Au    14.6000000000    11.8010400000    26.4644623683    L0
Au    4.3800000000    4.2146570000    26.4643518078    L0
Au    13.1400000000    4.2146570000    26.4649403035    L0
Au    8.7600000000    11.8010400000    26.4645673068    L0
Au    17.5200000000    11.8010400000    26.464468163    L0
Au    7.3000000000    4.2146570000    26.4649645561    L0
Au    16.0599990000    4.2146570000    26.4644373188    L0
Au    11.6800000000    11.8010400000    26.4645155941    L0
Au    20.4400010000    11.8010400000    26.4645143591    L0
Au    11.6800000000    6.7434510000    26.4659595062    L0
Au    5.8400000000    6.7434510000    26.4644916088    L0
Au    14.6000000000    6.7434510000    26.464549073100002    L0
Au    8.7600000000    6.7434510000    26.4660177264    L0
Au    17.5200000000    6.7434510000    26.4643764327    L0
C    10.1250646687    5.8107948368    32.2702753366    S
C    10.1618833903    4.7188649839    33.1416177109    S
C    9.7905482736    4.8761280195    34.4793391331    S
C    9.3760416730    6.1223359397    34.973690480900004    S
C    9.7119372779    7.0577123743    32.747500643    S
C    9.3416955539    7.2088090856    34.0860760873    S
C    10.7178262576    7.4694047620    41.0982100647    S
H    9.8163744460    4.0157977168    35.152438397400005    S
H    10.4112604656    5.6898620103    31.2247043013    S
H    9.6732809202    7.9150663697    32.0737467228    S
H    9.0141123714    8.1856727797    34.4496087917    S
H    10.4763743396    3.7396569523    32.7774507493    S
C    10.7463614691    6.3852297451    41.988849109499995    S
C    10.3731652570    6.5411807938    43.3260537982    S
C    9.9625513562    7.7907026519    43.7987945485    S
C    9.9315794171    8.8803897996    42.924380309300005    S
C    10.3060211344    8.7182604718    41.5880892471    S
H    10.4072009702    5.6855676090    44.0023065094    S
H    11.0716915701    5.4063133463    41.6289356219    S
H    9.6193848225    9.8616629614    43.2850121007    S
H    10.2847683416    9.5768029209    40.912588480699995    S
H    9.6740415860    7.9154292240    44.8433558985    S
C    9.0202772420    6.3004497812    36.4304484098    S
C    11.0758602034    7.2862604579    39.6426158139    S
C    9.8681213121    6.8885756697    38.7736401796    S
C    10.2281232840    6.6997614858    37.2985904454    S
H    9.0855722293    7.6594962230    38.8709548463    S
H    9.4285165033    5.9591528960    39.172495473699996    S
H    10.6663733331    7.6296688917    36.8994537823    S
H    11.0115489292    5.9297721263    37.2011022701    S
H    8.5896419824    5.3652778764    36.8231355127    S
H    8.2383478407    7.0706737948    36.528414732    S
H    11.8555753414    6.5133673884    39.54803083    S
H    11.5100768546    8.2191026891    39.248405691    S
Au    8.7600020000    1.6858630000    49.6042281204    R0
Au    13.1400000000    9.2722460000    49.6036775333    R0
Au    2.9200000000    1.6858630000    49.6042855111    R0
Au    11.6800000000    1.6858630000    49.6041940066    R0
Au    7.3000000000    9.2722460000    49.6032020964    R0
Au    16.0599990000    9.2722460000    49.6043938134    R0
Au    5.8400010000    1.6858630000    49.6043120282    R0
Au    14.6000000000    1.6858630000    49.604238237800004    R0
Au    10.2200000000    9.2722460000    49.6020175356    R0
Au    18.9800000000    9.2722460000    49.6042993318    R0
Au    10.2200010000    4.2146570000    49.602827942000005    R0
Au    14.6000000000    11.8010400000    49.6043589442    R0
Au    4.3800000000    4.2146570000    49.6043282972    R0
Au    13.1400000000    4.2146570000    49.6039896713    R0
Au    8.7600000000    11.8010400000    49.6039317514    R0
Au    17.5200000000    11.8010400000    49.6043133588    R0
Au    7.3000000000    4.2146570000    49.6038743012    R0
Au    16.0599990000    4.2146570000    49.604340858499995    R0
Au    11.6800000000    11.8010400000    49.6041387053    R0
Au    20.4400010000    11.8010400000    49.6042145428    R0
Au    11.6800000000    6.7434510000    49.602139331100005    R0
Au    5.8400000000    6.7434510000    49.6040563504    R0
Au    14.6000000000    6.7434510000    49.6042894085    R0
Au    8.7600000000    6.7434510000    49.6019001106    R0
Au    17.5200000000    6.7434510000    49.604383855    R0
Au    1.4600000000    0.8429310000    52.2264376374    R0
Au    10.2200000000    0.8429310000    52.226451019799995    R0
Au    5.8400010000    8.4293140000    52.2262680115    R0
Au    14.6000000000    8.4293140000    52.2262760947    R0
Au    4.3800000000    0.8429310000    52.226427944600005    R0
Au    13.1400010000    0.8429310000    52.2264365777    R0
Au    8.7600000000    8.4293140000    52.2258939162    R0
Au    17.5200000000    8.4293140000    52.2264358975    R0
Au    7.3000010000    0.8429310000    52.2264413929    R0
Au    11.6800000000    8.4293140000    52.2258001677    R0
Au    2.9200000000    3.3717260000    52.2264641644    R0
Au    11.6800010000    3.3717260000    52.2262926575    R0
Au    7.3000000000    10.9581090000    52.226313301000005    R0
Au    16.0599980000    10.9581090000    52.2264511805    R0
Au    5.8400000000    3.3717260000    52.2263817204    R0
Au    14.6000000000    3.3717260000    52.2264208702    R0
Au    10.2200000000    10.9581090000    52.2261401992    R0
Au    18.9800000000    10.9581090000    52.2264366967    R0
Au    8.7600000000    3.3717260000    52.226273249900004    R0
Au    13.1399990000    10.9581090000    52.2262891698    R0
Au    4.3800000000    5.9005200000    52.2263858966    R0
Au    13.1400000000    5.9005200000    52.2260764033    R0
Au    7.3000000000    5.9005200000    52.2260760032    R0
Au    16.0599990000    5.9005200000    52.2264210149    R0
Au    10.2200000000    5.9005200000    52.225845441000004    R0
Au    0.0000000000    0.0000000000    54.8489058431    R0
Au    8.7600000000    0.0000000000    54.84878289700001    R0
Au    4.3800000000    7.5863820000    54.8487018349    R0
Au    13.1399990000    7.5863820000    54.8487941457    R0
Au    2.9200000000    0.0000000000    54.8488639384    R0
Au    11.6800000000    0.0000000000    54.848858928300004    R0
Au    7.3000000000    7.5863820000    54.8491156834    R0
Au    16.0599990000    7.5863820000    54.848573978999994    R0
Au    5.8400000000    0.0000000000    54.848704894099995    R0
Au    10.2200000000    7.5863820000    54.849000864900006    R0
Au    1.4600000000    2.5287940000    54.8488340223    R0
Au    10.2200000000    2.5287940000    54.848895105400004    R0
Au    5.8400000000    10.1151760000    54.8488381655    R0
Au    14.6000000000    10.1151760000    54.848562770399994    R0
Au    4.3800000000    2.5287940000    54.8487713838    R0
Au    13.1400000000    2.5287940000    54.8488800212    R0
Au    8.7600000000    10.1151760000    54.8491973046    R0
Au    17.5200000000    10.1151760000    54.848710068900004    R0
Au    7.3000000000    2.5287940000    54.84882425959999    R0
Au    11.6800000000    10.1151760000    54.84893776289999    R0
Au    2.9200000000    5.0575880000    54.8486969252    R0
Au    11.6800000000    5.0575880000    54.849086831899996    R0
Au    5.8400000000    5.0575880000    54.8487848914    R0
Au    14.6000000000    5.0575880000    54.84867278750001    R0
Au    8.7600000000    5.0575880000    54.849145955699996    R0
Au    8.760002    1.685863   56.994628599488664 R1
Au   13.140000    9.272246   56.994628599488664 R1
Au    2.920000    1.685863   56.994628599488664 R1
Au   11.680000    1.685863   56.994628599488664 R1
Au    7.300000    9.272246   56.994628599488664 R1
Au   16.059999    9.272246   56.994628599488664 R1
Au    5.840001    1.685863   56.994628599488664 R1
Au   14.600000    1.685863   56.994628599488664 R1
Au   10.220000    9.272246   56.994628599488664 R1
Au   18.980000    9.272246   56.994628599488664 R1
Au   10.220001    4.214657   56.994628599488664 R1
Au   14.600000   11.801040   56.994628599488664 R1
Au    4.380000    4.214657   56.994628599488664 R1
Au   13.140000    4.214657   56.994628599488664 R1
Au    8.760000   11.801040   56.994628599488664 R1
Au   17.520000   11.801040   56.994628599488664 R1
Au    7.300000    4.214657   56.994628599488664 R1
Au   16.059999    4.214657   56.994628599488664 R1
Au   11.680000   11.801040   56.994628599488664 R1
Au   20.440001   11.801040   56.994628599488664 R1
Au   11.680000    6.743451   56.994628599488664 R1
Au    5.840000    6.743451   56.994628599488664 R1
Au   14.600000    6.743451   56.994628599488664 R1
Au    8.760000    6.743451   56.994628599488664 R1
Au   17.520000    6.743451   56.994628599488664 R1
Au    1.460000    0.842931   59.37879859948866 R1
Au   10.220000    0.842931   59.37879859948866 R1
Au    5.840001    8.429314   59.37879859948866 R1
Au   14.600000    8.429314   59.37879859948866 R1
Au    4.380000    0.842931   59.37879859948866 R1
Au   13.140001    0.842931   59.37879859948866 R1
Au    8.760000    8.429314   59.37879859948866 R1
Au   17.520000    8.429314   59.37879859948866 R1
Au    7.300001    0.842931   59.37879859948866 R1
Au   11.680000    8.429314   59.37879859948866 R1
Au    2.920000    3.371726   59.37879859948866 R1
Au   11.680001    3.371726   59.37879859948866 R1
Au    7.300000   10.958109   59.37879859948866 R1
Au   16.059998   10.958109   59.37879859948866 R1
Au    5.840000    3.371726   59.37879859948866 R1
Au   14.600000    3.371726   59.37879859948866 R1
Au   10.220000   10.958109   59.37879859948866 R1
Au   18.980000   10.958109   59.37879859948866 R1
Au    8.760000    3.371726   59.37879859948866 R1
Au   13.139999   10.958109   59.37879859948866 R1
Au    4.380000    5.900520   59.37879859948866 R1
Au   13.140000    5.900520   59.37879859948866 R1
Au    7.300000    5.900520   59.37879859948866 R1
Au   16.059999    5.900520   59.37879859948866 R1
Au   10.220000    5.900520   59.37879859948866 R1
Au    0.000000    0.000000   61.762968599488666 R1
Au    8.760000    0.000000   61.762968599488666 R1
Au    4.380000    7.586382   61.762968599488666 R1
Au   13.139999    7.586382   61.762968599488666 R1
Au    2.920000    0.000000   61.762968599488666 R1
Au   11.680000    0.000000   61.762968599488666 R1
Au    7.300000    7.586382   61.762968599488666 R1
Au   16.059999    7.586382   61.762968599488666 R1
Au    5.840000    0.000000   61.762968599488666 R1
Au   10.220000    7.586382   61.762968599488666 R1
Au    1.460000    2.528794   61.762968599488666 R1
Au   10.220000    2.528794   61.762968599488666 R1
Au    5.840000   10.115176   61.762968599488666 R1
Au   14.600000   10.115176   61.762968599488666 R1
Au    4.380000    2.528794   61.762968599488666 R1
Au   13.140000    2.528794   61.762968599488666 R1
Au    8.760000   10.115176   61.762968599488666 R1
Au   17.520000   10.115176   61.762968599488666 R1
Au    7.300000    2.528794   61.762968599488666 R1
Au   11.680000   10.115176   61.762968599488666 R1
Au    2.920000    5.057588   61.762968599488666 R1
Au   11.680000    5.057588   61.762968599488666 R1
Au    5.840000    5.057588   61.762968599488666 R1
Au   14.600000    5.057588   61.762968599488666 R1
Au    8.760000    5.057588   61.762968599488666 R1
Au    8.760002    1.685863   64.14713859948867 R2
Au   13.140000    9.272246   64.14713859948867 R2
Au    2.920000    1.685863   64.14713859948867 R2
Au   11.680000    1.685863   64.14713859948867 R2
Au    7.300000    9.272246   64.14713859948867 R2
Au   16.059999    9.272246   64.14713859948867 R2
Au    5.840001    1.685863   64.14713859948867 R2
Au   14.600000    1.685863   64.14713859948867 R2
Au   10.220000    9.272246   64.14713859948867 R2
Au   18.980000    9.272246   64.14713859948867 R2
Au   10.220001    4.214657   64.14713859948867 R2
Au   14.600000   11.801040   64.14713859948867 R2
Au    4.380000    4.214657   64.14713859948867 R2
Au   13.140000    4.214657   64.14713859948867 R2
Au    8.760000   11.801040   64.14713859948867 R2
Au   17.520000   11.801040   64.14713859948867 R2
Au    7.300000    4.214657   64.14713859948867 R2
Au   16.059999    4.214657   64.14713859948867 R2
Au   11.680000   11.801040   64.14713859948867 R2
Au   20.440001   11.801040   64.14713859948867 R2
Au   11.680000    6.743451   64.14713859948867 R2
Au    5.840000    6.743451   64.14713859948867 R2
Au   14.600000    6.743451   64.14713859948867 R2
Au    8.760000    6.743451   64.14713859948867 R2
Au   17.520000    6.743451   64.14713859948867 R2
Au    1.460000    0.842931   66.53130859948867 R2
Au   10.220000    0.842931   66.53130859948867 R2
Au    5.840001    8.429314   66.53130859948867 R2
Au   14.600000    8.429314   66.53130859948867 R2
Au    4.380000    0.842931   66.53130859948867 R2
Au   13.140001    0.842931   66.53130859948867 R2
Au    8.760000    8.429314   66.53130859948867 R2
Au   17.520000    8.429314   66.53130859948867 R2
Au    7.300001    0.842931   66.53130859948867 R2
Au   11.680000    8.429314   66.53130859948867 R2
Au    2.920000    3.371726   66.53130859948867 R2
Au   11.680001    3.371726   66.53130859948867 R2
Au    7.300000   10.958109   66.53130859948867 R2
Au   16.059998   10.958109   66.53130859948867 R2
Au    5.840000    3.371726   66.53130859948867 R2
Au   14.600000    3.371726   66.53130859948867 R2
Au   10.220000   10.958109   66.53130859948867 R2
Au   18.980000   10.958109   66.53130859948867 R2
Au    8.760000    3.371726   66.53130859948867 R2
Au   13.139999   10.958109   66.53130859948867 R2
Au    4.380000    5.900520   66.53130859948867 R2
Au   13.140000    5.900520   66.53130859948867 R2
Au    7.300000    5.900520   66.53130859948867 R2
Au   16.059999    5.900520   66.53130859948867 R2
Au   10.220000    5.900520   66.53130859948867 R2
Au    0.000000    0.000000   68.91547859948867 R2
Au    8.760000    0.000000   68.91547859948867 R2
Au    4.380000    7.586382   68.91547859948867 R2
Au   13.139999    7.586382   68.91547859948867 R2
Au    2.920000    0.000000   68.91547859948867 R2
Au   11.680000    0.000000   68.91547859948867 R2
Au    7.300000    7.586382   68.91547859948867 R2
Au   16.059999    7.586382   68.91547859948867 R2
Au    5.840000    0.000000   68.91547859948867 R2
Au   10.220000    7.586382   68.91547859948867 R2
Au    1.460000    2.528794   68.91547859948867 R2
Au   10.220000    2.528794   68.91547859948867 R2
Au    5.840000   10.115176   68.91547859948867 R2
Au   14.600000   10.115176   68.91547859948867 R2
Au    4.380000    2.528794   68.91547859948867 R2
Au   13.140000    2.528794   68.91547859948867 R2
Au    8.760000   10.115176   68.91547859948867 R2
Au   17.520000   10.115176   68.91547859948867 R2
Au    7.300000    2.528794   68.91547859948867 R2
Au   11.680000   10.115176   68.91547859948867 R2
Au    2.920000    5.057588   68.91547859948867 R2
Au   11.680000    5.057588   68.91547859948867 R2
Au    5.840000    5.057588   68.91547859948867 R2
Au   14.600000    5.057588   68.91547859948867 R2
Au    8.760000    5.057588   68.91547859948867 R2
Au    8.760002    1.685863   71.29964859948868 R3
Au   13.140000    9.272246   71.29964859948868 R3
Au    2.920000    1.685863   71.29964859948868 R3
Au   11.680000    1.685863   71.29964859948868 R3
Au    7.300000    9.272246   71.29964859948868 R3
Au   16.059999    9.272246   71.29964859948868 R3
Au    5.840001    1.685863   71.29964859948868 R3
Au   14.600000    1.685863   71.29964859948868 R3
Au   10.220000    9.272246   71.29964859948868 R3
Au   18.980000    9.272246   71.29964859948868 R3
Au   10.220001    4.214657   71.29964859948868 R3
Au   14.600000   11.801040   71.29964859948868 R3
Au    4.380000    4.214657   71.29964859948868 R3
Au   13.140000    4.214657   71.29964859948868 R3
Au    8.760000   11.801040   71.29964859948868 R3
Au   17.520000   11.801040   71.29964859948868 R3
Au    7.300000    4.214657   71.29964859948868 R3
Au   16.059999    4.214657   71.29964859948868 R3
Au   11.680000   11.801040   71.29964859948868 R3
Au   20.440001   11.801040   71.29964859948868 R3
Au   11.680000    6.743451   71.29964859948868 R3
Au    5.840000    6.743451   71.29964859948868 R3
Au   14.600000    6.743451   71.29964859948868 R3
Au    8.760000    6.743451   71.29964859948868 R3
Au   17.520000    6.743451   71.29964859948868 R3
Au    1.460000    0.842931   73.68381859948867 R3
Au   10.220000    0.842931   73.68381859948867 R3
Au    5.840001    8.429314   73.68381859948867 R3
Au   14.600000    8.429314   73.68381859948867 R3
Au    4.380000    0.842931   73.68381859948867 R3
Au   13.140001    0.842931   73.68381859948867 R3
Au    8.760000    8.429314   73.68381859948867 R3
Au   17.520000    8.429314   73.68381859948867 R3
Au    7.300001    0.842931   73.68381859948867 R3
Au   11.680000    8.429314   73.68381859948867 R3
Au    2.920000    3.371726   73.68381859948867 R3
Au   11.680001    3.371726   73.68381859948867 R3
Au    7.300000   10.958109   73.68381859948867 R3
Au   16.059998   10.958109   73.68381859948867 R3
Au    5.840000    3.371726   73.68381859948867 R3
Au   14.600000    3.371726   73.68381859948867 R3
Au   10.220000   10.958109   73.68381859948867 R3
Au   18.980000   10.958109   73.68381859948867 R3
Au    8.760000    3.371726   73.68381859948867 R3
Au   13.139999   10.958109   73.68381859948867 R3
Au    4.380000    5.900520   73.68381859948867 R3
Au   13.140000    5.900520   73.68381859948867 R3
Au    7.300000    5.900520   73.68381859948867 R3
Au   16.059999    5.900520   73.68381859948867 R3
Au   10.220000    5.900520   73.68381859948867 R3
Au    0.000000    0.000000   76.06798859948867 R3
Au    8.760000    0.000000   76.06798859948867 R3
Au    4.380000    7.586382   76.06798859948867 R3
Au   13.139999    7.586382   76.06798859948867 R3
Au    2.920000    0.000000   76.06798859948867 R3
Au   11.680000    0.000000   76.06798859948867 R3
Au    7.300000    7.586382   76.06798859948867 R3
Au   16.059999    7.586382   76.06798859948867 R3
Au    5.840000    0.000000   76.06798859948867 R3
Au   10.220000    7.586382   76.06798859948867 R3
Au    1.460000    2.528794   76.06798859948867 R3
Au   10.220000    2.528794   76.06798859948867 R3
Au    5.840000   10.115176   76.06798859948867 R3
Au   14.600000   10.115176   76.06798859948867 R3
Au    4.380000    2.528794   76.06798859948867 R3
Au   13.140000    2.528794   76.06798859948867 R3
Au    8.760000   10.115176   76.06798859948867 R3
Au   17.520000   10.115176   76.06798859948867 R3
Au    7.300000    2.528794   76.06798859948867 R3
Au   11.680000   10.115176   76.06798859948867 R3
Au    2.920000    5.057588   76.06798859948867 R3
Au   11.680000    5.057588   76.06798859948867 R3
Au    5.840000    5.057588   76.06798859948867 R3
Au   14.600000    5.057588   76.06798859948867 R3
Au    8.760000    5.057588   76.06798859948867 R3
