     184
 i =       11, E =     -5087.1312204471
 Au         0.0000000000        0.0000000000       -0.2383166673
 Au         8.7600000000        0.0000000000       -0.2382416506
 Au         4.3800000000        7.5863820000       -0.2379697923
 Au        13.1400000000        7.5863820000       -0.2378467296
 Au         2.9200000000        0.0000000000       -0.2382778358
 Au        11.6800000000        0.0000000000       -0.2383478612
 Au         7.3000000000        7.5863820000       -0.2374908543
 Au        16.0599990000        7.5863820000       -0.2380271694
 Au         5.8400000000        0.0000000000       -0.2381299613
 Au        10.2200000000        7.5863820000       -0.2377765268
 Au         1.4600000000        2.5287940000       -0.2381795845
 Au        10.2200000000        2.5287940000       -0.2381916981
 Au         5.8400000000       10.1151760000       -0.2381927669
 Au        14.6000000000       10.1151760000       -0.2381143350
 Au         4.3800000000        2.5287940000       -0.2380190339
 Au        13.1400000000        2.5287940000       -0.2384857970
 Au         8.7600000000       10.1151760000       -0.2378924693
 Au        17.5200000000       10.1151760000       -0.2382068697
 Au         7.3000000000        2.5287940000       -0.2380302293
 Au        11.6800000000       10.1151760000       -0.2379401160
 Au         2.9200000000        5.0575880000       -0.2379862813
 Au        11.6800000000        5.0575880000       -0.2376847691
 Au         5.8400000000        5.0575880000       -0.2376143213
 Au        14.6000000000        5.0575880000       -0.2381792599
 Au         8.7600000000        5.0575880000       -0.2374273205
 Au         1.4600000000        0.8429310000        2.3843411829
 Au        10.2200000000        0.8429310000        2.3843406816
 Au         5.8400000000        8.4293140000        2.3845173383
 Au        14.6000000000        8.4293140000        2.3845249335
 Au         4.3800000000        0.8429310000        2.3843085959
 Au        13.1400000000        0.8429310000        2.3843336265
 Au         8.7600000000        8.4293140000        2.3851422737
 Au        17.5200000000        8.4293140000        2.3843048333
 Au         7.3000000000        0.8429310000        2.3843628191
 Au        11.6800000000        8.4293140000        2.3850422186
 Au         2.9200000000        3.3717260000        2.3842931678
 Au        11.6800000000        3.3717260000        2.3848810239
 Au         7.3000000000       10.9581080000        2.3844623911
 Au        16.0599990000       10.9581080000        2.3843070446
 Au         5.8400000000        3.3717260000        2.3845477957
 Au        14.6000000000        3.3717260000        2.3844572491
 Au        10.2200000000       10.9581080000        2.3846013719
 Au        18.9800000000       10.9581080000        2.3842902891
 Au         8.7600000000        3.3717260000        2.3850735762
 Au        13.1400000000       10.9581080000        2.3844679989
 Au         4.3800000000        5.9005200000        2.3844077893
 Au        13.1400000000        5.9005200000        2.3850629599
 Au         7.3000000000        5.9005200000        2.3853590191
 Au        16.0599990000        5.9005200000        2.3843719187
 Au        10.2200000000        5.9005200000        2.3858063541
 Au         8.7600000000        1.6858630000        5.0073956191
 Au        13.1400000000        9.2722450000        5.0071894815
 Au         2.9200000000        1.6858630000        5.0070081953
 Au        11.6800000000        1.6858630000        5.0074951161
 Au         7.3000000000        9.2722450000        5.0074350435
 Au        16.0599990000        9.2722450000        5.0070076714
 Au         5.8400000000        1.6858630000        5.0069467558
 Au        14.6000000000        1.6858630000        5.0071643613
 Au        10.2200000000        9.2722450000        5.0082850373
 Au        18.9800000000        9.2722450000        5.0069984379
 Au        10.2200000000        4.2146570000        5.0094150928
 Au        14.6000000000       11.8010400000        5.0070565048
 Au         4.3800000000        4.2146570000        5.0068385187
 Au        13.1400000000        4.2146570000        5.0080959149
 Au         8.7600000000       11.8010400000        5.0072836922
 Au        17.5200000000       11.8010400000        5.0070840771
 Au         7.3000000000        4.2146570000        5.0079190035
 Au        16.0599990000        4.2146570000        5.0069756519
 Au        11.6800000000       11.8010400000        5.0071836460
 Au        20.4400010000       11.8010400000        5.0071531535
 Au        11.6800000000        6.7434510000        5.0095166324
 Au         5.8400000000        6.7434510000        5.0071366586
 Au        14.6000000000        6.7434510000        5.0072192087
 Au         8.7600000000        6.7434510000        5.0094257042
 Au        17.5200000000        6.7434510000        5.0069018535
  C        10.1247824839        5.8109265596        9.8115161002
  C        10.1618426271        4.7189692723       10.6829346724
  C         9.7907615793        4.8762913795       12.0209402384
  C         9.3762447216        6.1226099241       12.5154908256
  C         9.7115161808        7.0578218775       10.2887719310
  C         9.3416303849        7.2090440221       11.6275446463
  C        10.7172829745        7.4691876588       18.6414214757
  H         9.8167626935        4.0159716379       12.6940918782
  H        10.4107179731        5.6900817657        8.7656607254
  H         9.6729648654        7.9149472103        9.6147957392
  H         9.0142121520        8.1858805980       11.9911721650
  H        10.4764823858        3.7396209165       10.3190289122
  C        10.7461559412        6.3851049689       19.5323837805
  C        10.3733966226        6.5412319671       20.8698184556
  C         9.9629253672        7.7907384553       21.3425806175
  C         9.9317248096        8.8804555054       20.4680389252
  C        10.3057697825        8.7181859017       19.1315273132
  H        10.4074651868        5.6858515741       21.5462256759
  H        11.0713038347        5.4061662076       19.1722742984
  H         9.6194645567        9.8618059415       20.8284044995
  H        10.2843739168        9.5767531530       18.4559282766
  H         9.6747037564        7.9153533964       22.3873242073
  C         9.0204658048        6.3005982742       13.9725726943
  C        11.0755827609        7.2861840383       17.1855248432
  C         9.8679773557        6.8885985331       16.3160869652
  C        10.2282774940        6.6998493918       14.8409558851
  H         9.0854160517        7.6596176380       16.4133503178
  H         9.4283643280        5.9590588335       16.7148572312
  H        10.6665272359        7.6298483138       14.4418335246
  H        11.0116996224        5.9297274096       14.7435048431
  H         8.5898148375        5.3652606299       14.3650371084
  H         8.2383977570        7.0707752348       14.0705132972
  H        11.8554094151        6.5133016208       17.0910801717
  H        11.5099055420        8.2191908137       16.7915152754
 Au         8.7600020000        1.6858630000       26.1463023821
 Au        13.1400000000        9.2722460000       26.1453764112
 Au         2.9200000000        1.6858630000       26.1462475147
 Au        11.6800000000        1.6858630000       26.1461573352
 Au         7.3000000000        9.2722460000       26.1446915682
 Au        16.0599990000        9.2722460000       26.1464438575
 Au         5.8400010000        1.6858630000       26.1463083825
 Au        14.6000000000        1.6858630000       26.1461791446
 Au        10.2200000000        9.2722460000       26.1433796675
 Au        18.9800000000        9.2722460000       26.1463181926
 Au        10.2200010000        4.2146570000       26.1448510190
 Au        14.6000000000       11.8010400000       26.1463825303
 Au         4.3800000000        4.2146570000       26.1463523731
 Au        13.1400000000        4.2146570000       26.1458963449
 Au         8.7600000000       11.8010400000       26.1454422916
 Au        17.5200000000       11.8010400000       26.1463186193
 Au         7.3000000000        4.2146570000       26.1461194893
 Au        16.0599990000        4.2146570000       26.1463577442
 Au        11.6800000000       11.8010400000       26.1458206001
 Au        20.4400010000       11.8010400000       26.1461333665
 Au        11.6800000000        6.7434510000       26.1439026967
 Au         5.8400000000        6.7434510000       26.1461009704
 Au        14.6000000000        6.7434510000       26.1462701559
 Au         8.7600000000        6.7434510000       26.1435142187
 Au        17.5200000000        6.7434510000       26.1464352387
 Au         1.4600000000        0.8429310000       28.7685229682
 Au        10.2200000000        0.8429310000       28.7685716193
 Au         5.8400010000        8.4293140000       28.7682357508
 Au        14.6000000000        8.4293140000       28.7682450517
 Au         4.3800000000        0.8429310000       28.7685079281
 Au        13.1400010000        0.8429310000       28.7685249443
 Au         8.7600000000        8.4293140000       28.7675258157
 Au        17.5200000000        8.4293140000       28.7685461895
 Au         7.3000010000        0.8429310000       28.7685486975
 Au        11.6800000000        8.4293140000       28.7673534451
 Au         2.9200000000        3.3717260000       28.7685756569
 Au        11.6800010000        3.3717260000       28.7683836724
 Au         7.3000000000       10.9581090000       28.7682673099
 Au        16.0599980000       10.9581090000       28.7685574878
 Au         5.8400000000        3.3717260000       28.7684829795
 Au        14.6000000000        3.3717260000       28.7685028098
 Au        10.2200000000       10.9581090000       28.7679387655
 Au        18.9800000000       10.9581090000       28.7685294096
 Au         8.7600000000        3.3717260000       28.7683891156
 Au        13.1399990000       10.9581090000       28.7682326406
 Au         4.3800000000        5.9005200000       28.7684814157
 Au        13.1400000000        5.9005200000       28.7679434264
 Au         7.3000000000        5.9005200000       28.7679949367
 Au        16.0599990000        5.9005200000       28.7685173872
 Au        10.2200000000        5.9005200000       28.7675905689
 Au         0.0000000000        0.0000000000       31.3910488762
 Au         8.7600000000        0.0000000000       31.3908680059
 Au         4.3800000000        7.5863820000       31.3907112819
 Au        13.1399990000        7.5863820000       31.3904509283
 Au         2.9200000000        0.0000000000       31.3910224015
 Au        11.6800000000        0.0000000000       31.3909525176
 Au         7.3000000000        7.5863820000       31.3908877957
 Au        16.0599990000        7.5863820000       31.3905286300
 Au         5.8400000000        0.0000000000       31.3907211656
 Au        10.2200000000        7.5863820000       31.3905948038
 Au         1.4600000000        2.5287940000       31.3909413499
 Au        10.2200000000        2.5287940000       31.3909325862
 Au         5.8400000000       10.1151760000       31.3909089782
 Au        14.6000000000       10.1151760000       31.3904684573
 Au         4.3800000000        2.5287940000       31.3908111580
 Au        13.1400000000        2.5287940000       31.3909785853
 Au         8.7600000000       10.1151760000       31.3909776008
 Au        17.5200000000       10.1151760000       31.3907707018
 Au         7.3000000000        2.5287940000       31.3908527756
 Au        11.6800000000       10.1151760000       31.3906210548
 Au         2.9200000000        5.0575880000       31.3907410002
 Au        11.6800000000        5.0575880000       31.3908910718
 Au         5.8400000000        5.0575880000       31.3907923102
 Au        14.6000000000        5.0575880000       31.3906558415
 Au         8.7600000000        5.0575880000       31.3909114711