 420
 i =       82, E =     -3365.3998523447
Au     0.000000     0.000000     0.000000     L3
Au     8.760000     0.000000     0.000000     L3
Au     4.380000     7.586382     0.000000     L3
Au     13.140000     7.586382     0.000000     L3
Au     2.920000     0.000000     0.000000     L3
Au     11.680000     0.000000     0.000000     L3
Au     7.300000     7.586382     0.000000     L3
Au     16.059999     7.586382     0.000000     L3
Au     5.840000     0.000000     0.000000     L3
Au     10.220000     7.586382     0.000000     L3
Au     1.460000     2.528794     0.000000     L3
Au     10.220000     2.528794     0.000000     L3
Au     5.840000     10.115176     0.000000     L3
Au     14.600000     10.115176     0.000000     L3
Au     4.380000     2.528794     0.000000     L3
Au     13.140000     2.528794     0.000000     L3
Au     8.760000     10.115176     0.000000     L3
Au     17.520000     10.115176     0.000000     L3
Au     7.300000     2.528794     0.000000     L3
Au     11.680000     10.115176     0.000000     L3
Au     2.920000     5.057588     0.000000     L3
Au     11.680000     5.057588     0.000000     L3
Au     5.840000     5.057588     0.000000     L3
Au     14.600000     5.057588     0.000000     L3
Au     8.760000     5.057588     0.000000     L3
Au     1.460000     0.842931     2.384170     L3
Au     10.220000     0.842931     2.384170     L3
Au     5.840000     8.429314     2.384170     L3
Au     14.600000     8.429314     2.384170     L3
Au     4.380000     0.842931     2.384170     L3
Au     13.140000     0.842931     2.384170     L3
Au     8.760000     8.429314     2.384170     L3
Au     17.520000     8.429314     2.384170     L3
Au     7.300000     0.842931     2.384170     L3
Au     11.680000     8.429314     2.384170     L3
Au     2.920000     3.371726     2.384170     L3
Au     11.680000     3.371726     2.384170     L3
Au     7.300000     10.958108     2.384170     L3
Au     16.059999     10.958108     2.384170     L3
Au     5.840000     3.371726     2.384170     L3
Au     14.600000     3.371726     2.384170     L3
Au     10.220000     10.958108     2.384170     L3
Au     18.980000     10.958108     2.384170     L3
Au     8.760000     3.371726     2.384170     L3
Au     13.140000     10.958108     2.384170     L3
Au     4.380000     5.900520     2.384170     L3
Au     13.140000     5.900520     2.384170     L3
Au     7.300000     5.900520     2.384170     L3
Au     16.059999     5.900520     2.384170     L3
Au     10.220000     5.900520     2.384170     L3
Au     8.760000     1.685863     4.768340     L3
Au     13.140000     9.272245     4.768340     L3
Au     2.920000     1.685863     4.768340     L3
Au     11.680000     1.685863     4.768340     L3
Au     7.300000     9.272245     4.768340     L3
Au     16.059999     9.272245     4.768340     L3
Au     5.840000     1.685863     4.768340     L3
Au     14.600000     1.685863     4.768340     L3
Au     10.220000     9.272245     4.768340     L3
Au     18.980000     9.272245     4.768340     L3
Au     10.220000     4.214657     4.768340     L3
Au     14.600000     11.801040     4.768340     L3
Au     4.380000     4.214657     4.768340     L3
Au     13.140000     4.214657     4.768340     L3
Au     8.760000     11.801040     4.768340     L3
Au     17.520000     11.801040     4.768340     L3
Au     7.300000     4.214657     4.768340     L3
Au     16.059999     4.214657     4.768340     L3
Au     11.680000     11.801040     4.768340     L3
Au     20.440001     11.801040     4.768340     L3
Au     11.680000     6.743451     4.768340     L3
Au     5.840000     6.743451     4.768340     L3
Au     14.600000     6.743451     4.768340     L3
Au     8.760000     6.743451     4.768340     L3
Au     17.520000     6.743451     4.768340     L3
Au     0.000000     0.000000     7.152510     L2
Au     8.760000     0.000000     7.152510     L2
Au     4.380000     7.586382     7.152510     L2
Au     13.140000     7.586382     7.152510     L2
Au     2.920000     0.000000     7.152510     L2
Au     11.680000     0.000000     7.152510     L2
Au     7.300000     7.586382     7.152510     L2
Au     16.059999     7.586382     7.152510     L2
Au     5.840000     0.000000     7.152510     L2
Au     10.220000     7.586382     7.152510     L2
Au     1.460000     2.528794     7.152510     L2
Au     10.220000     2.528794     7.152510     L2
Au     5.840000     10.115176     7.152510     L2
Au     14.600000     10.115176     7.152510     L2
Au     4.380000     2.528794     7.152510     L2
Au     13.140000     2.528794     7.152510     L2
Au     8.760000     10.115176     7.152510     L2
Au     17.520000     10.115176     7.152510     L2
Au     7.300000     2.528794     7.152510     L2
Au     11.680000     10.115176     7.152510     L2
Au     2.920000     5.057588     7.152510     L2
Au     11.680000     5.057588     7.152510     L2
Au     5.840000     5.057588     7.152510     L2
Au     14.600000     5.057588     7.152510     L2
Au     8.760000     5.057588     7.152510     L2
Au     1.460000     0.842931     9.536680     L2
Au     10.220000     0.842931     9.536680     L2
Au     5.840000     8.429314     9.536680     L2
Au     14.600000     8.429314     9.536680     L2
Au     4.380000     0.842931     9.536680     L2
Au     13.140000     0.842931     9.536680     L2
Au     8.760000     8.429314     9.536680     L2
Au     17.520000     8.429314     9.536680     L2
Au     7.300000     0.842931     9.536680     L2
Au     11.680000     8.429314     9.536680     L2
Au     2.920000     3.371726     9.536680     L2
Au     11.680000     3.371726     9.536680     L2
Au     7.300000     10.958108     9.536680     L2
Au     16.059999     10.958108     9.536680     L2
Au     5.840000     3.371726     9.536680     L2
Au     14.600000     3.371726     9.536680     L2
Au     10.220000     10.958108     9.536680     L2
Au     18.980000     10.958108     9.536680     L2
Au     8.760000     3.371726     9.536680     L2
Au     13.140000     10.958108     9.536680     L2
Au     4.380000     5.900520     9.536680     L2
Au     13.140000     5.900520     9.536680     L2
Au     7.300000     5.900520     9.536680     L2
Au     16.059999     5.900520     9.536680     L2
Au     10.220000     5.900520     9.536680     L2
Au     8.760000     1.685863     11.920850     L2
Au     13.140000     9.272245     11.920850     L2
Au     2.920000     1.685863     11.920850     L2
Au     11.680000     1.685863     11.920850     L2
Au     7.300000     9.272245     11.920850     L2
Au     16.059999     9.272245     11.920850     L2
Au     5.840000     1.685863     11.920850     L2
Au     14.600000     1.685863     11.920850     L2
Au     10.220000     9.272245     11.920850     L2
Au     18.980000     9.272245     11.920850     L2
Au     10.220000     4.214657     11.920850     L2
Au     14.600000     11.801040     11.920850     L2
Au     4.380000     4.214657     11.920850     L2
Au     13.140000     4.214657     11.920850     L2
Au     8.760000     11.801040     11.920850     L2
Au     17.520000     11.801040     11.920850     L2
Au     7.300000     4.214657     11.920850     L2
Au     16.059999     4.214657     11.920850     L2
Au     11.680000     11.801040     11.920850     L2
Au     20.440001     11.801040     11.920850     L2
Au     11.680000     6.743451     11.920850     L2
Au     5.840000     6.743451     11.920850     L2
Au     14.600000     6.743451     11.920850     L2
Au     8.760000     6.743451     11.920850     L2
Au     17.520000     6.743451     11.920850     L2
Au     0.000000     0.000000     14.305019     L1
Au     8.760000     0.000000     14.305019     L1
Au     4.380000     7.586382     14.305019     L1
Au     13.140000     7.586382     14.305019     L1
Au     2.920000     0.000000     14.305019     L1
Au     11.680000     0.000000     14.305019     L1
Au     7.300000     7.586382     14.305019     L1
Au     16.059999     7.586382     14.305019     L1
Au     5.840000     0.000000     14.305019     L1
Au     10.220000     7.586382     14.305019     L1
Au     1.460000     2.528794     14.305019     L1
Au     10.220000     2.528794     14.305019     L1
Au     5.840000     10.115176     14.305019     L1
Au     14.600000     10.115176     14.305019     L1
Au     4.380000     2.528794     14.305019     L1
Au     13.140000     2.528794     14.305019     L1
Au     8.760000     10.115176     14.305019     L1
Au     17.520000     10.115176     14.305019     L1
Au     7.300000     2.528794     14.305019     L1
Au     11.680000     10.115176     14.305019     L1
Au     2.920000     5.057588     14.305019     L1
Au     11.680000     5.057588     14.305019     L1
Au     5.840000     5.057588     14.305019     L1
Au     14.600000     5.057588     14.305019     L1
Au     8.760000     5.057588     14.305019     L1
Au     1.460000     0.842931     16.689190     L1
Au     10.220000     0.842931     16.689190     L1
Au     5.840000     8.429314     16.689190     L1
Au     14.600000     8.429314     16.689190     L1
Au     4.380000     0.842931     16.689190     L1
Au     13.140000     0.842931     16.689190     L1
Au     8.760000     8.429314     16.689190     L1
Au     17.520000     8.429314     16.689190     L1
Au     7.300000     0.842931     16.689190     L1
Au     11.680000     8.429314     16.689190     L1
Au     2.920000     3.371726     16.689190     L1
Au     11.680000     3.371726     16.689190     L1
Au     7.300000     10.958108     16.689190     L1
Au     16.059999     10.958108     16.689190     L1
Au     5.840000     3.371726     16.689190     L1
Au     14.600000     3.371726     16.689190     L1
Au     10.220000     10.958108     16.689190     L1
Au     18.980000     10.958108     16.689190     L1
Au     8.760000     3.371726     16.689190     L1
Au     13.140000     10.958108     16.689190     L1
Au     4.380000     5.900520     16.689190     L1
Au     13.140000     5.900520     16.689190     L1
Au     7.300000     5.900520     16.689190     L1
Au     16.059999     5.900520     16.689190     L1
Au     10.220000     5.900520     16.689190     L1
Au     8.760000     1.685863     19.073360     L1
Au     13.140000     9.272245     19.073360     L1
Au     2.920000     1.685863     19.073360     L1
Au     11.680000     1.685863     19.073360     L1
Au     7.300000     9.272245     19.073360     L1
Au     16.059999     9.272245     19.073360     L1
Au     5.840000     1.685863     19.073360     L1
Au     14.600000     1.685863     19.073360     L1
Au     10.220000     9.272245     19.073360     L1
Au     18.980000     9.272245     19.073360     L1
Au     10.220000     4.214657     19.073360     L1
Au     14.600000     11.801040     19.073360     L1
Au     4.380000     4.214657     19.073360     L1
Au     13.140000     4.214657     19.073360     L1
Au     8.760000     11.801040     19.073360     L1
Au     17.520000     11.801040     19.073360     L1
Au     7.300000     4.214657     19.073360     L1
Au     16.059999     4.214657     19.073360     L1
Au     11.680000     11.801040     19.073360     L1
Au     20.440001     11.801040     19.073360     L1
Au     11.680000     6.743451     19.073360     L1
Au     5.840000     6.743451     19.073360     L1
Au     14.600000     6.743451     19.073360     L1
Au     8.760000     6.743451     19.073360     L1
Au     17.520000     6.743451     19.073360     L1
Au    0.0000000000    0.0000000000    20.5997304374    L0
Au    8.7600000000    0.0000000000    20.603651432    L0
Au    4.3800000000    7.5863820000    20.606195663    L0
Au    13.1400000000    7.5863820000    20.5934247364    L0
Au    2.9200000000    0.0000000000    20.5965387519    L0
Au    11.6800000000    0.0000000000    20.602596604    L0
Au    7.3000000000    7.5863820000    20.6097755541    L0
Au    16.0599990000    7.5863820000    20.6007466878    L0
Au    5.8400000000    0.0000000000    20.6004387881    L0
Au    10.2200000000    7.5863820000    20.6023385566    L0
Au    1.4600000000    2.5287940000    20.5945231681    L0
Au    10.2200000000    2.5287940000    20.6058051517    L0
Au    5.8400000000    10.1151760000    20.605103911    L0
Au    14.6000000000    10.1151760000    20.6003112446    L0
Au    4.3800000000    2.5287940000    20.5988246627    L0
Au    13.1400000000    2.5287940000    20.5972122746    L0
Au    8.7600000000    10.1151760000    20.6016128082    L0
Au    17.5200000000    10.1151760000    20.6038430617    L0
Au    7.3000000000    2.5287940000    20.6060671213    L0
Au    11.6800000000    10.1151760000    20.5956450614    L0
Au    2.9200000000    5.0575880000    20.600427905    L0
Au    11.6800000000    5.0575880000    20.5997119613    L0
Au    5.8400000000    5.0575880000    20.6072514298    L0
Au    14.6000000000    5.0575880000    20.593269084    L0
Au    8.7600000000    5.0575880000    20.6112055159    L0
Au    1.4600000000    0.8429310000    23.2201806079    L0
Au    10.2200000000    0.8429310000    23.2266282559    L0
Au    5.8400000000    8.4293140000    23.2300281125    L0
Au    14.6000000000    8.4293140000    23.2217516988    L0
Au    4.3800000000    0.8429310000    23.2208944264    L0
Au    13.1400000000    0.8429310000    23.2226538981    L0
Au    8.7600000000    8.4293140000    23.2295356615    L0
Au    17.5200000000    8.4293140000    23.2261625703    L0
Au    7.3000000000    0.8429310000    23.2265751674    L0
Au    11.6800000000    8.4293140000    23.2165266077    L0
Au    2.9200000000    3.3717260000    23.2207643509    L0
Au    11.6800000000    3.3717260000    23.2232964292    L0
Au    7.3000000000    10.9581080000    23.2255235974    L0
Au    16.0599990000    10.9581080000    23.225190464    L0
Au    5.8400000000    3.3717260000    23.2267664406    L0
Au    14.6000000000    3.3717260000    23.2167176797    L0
Au    10.2200000000    10.9581080000    23.2206564073    L0
Au    18.9800000000    10.9581080000    23.2263352495    L0
Au    8.7600000000    3.3717260000    23.2315203277    L0
Au    13.1400000000    10.9581080000    23.2221010859    L0
Au    4.3800000000    5.9005200000    23.2278727291    L0
Au    13.1400000000    5.9005200000    23.2149038155    L0
Au    7.3000000000    5.9005200000    23.2350941135    L0
Au    16.0599990000    5.9005200000    23.2214637738    L0
Au    10.2200000000    5.9005200000    23.2258547743    L0
Au    8.7600000000    1.6858630000    25.8527738706    L0
Au    13.1400000000    9.2722450000    25.8451415017    L0
Au    2.9200000000    1.6858630000    25.8430395624    L0
Au    11.6800000000    1.6858630000    25.8478692181    L0
Au    7.3000000000    9.2722450000    25.853184376    L0
Au    16.0599990000    9.2722450000    25.8477222291    L0
Au    5.8400000000    1.6858630000    25.8471992508    L0
Au    14.6000000000    1.6858630000    25.8435129274    L0
Au    10.2200000000    9.2722450000    25.8472292085    L0
Au    18.9800000000    9.2722450000    25.8511494571    L0
Au    10.2200000000    4.2146570000    25.84605304    L0
Au    14.6000000000    11.8010400000    25.8486307202    L0
Au    4.3800000000    4.2146570000    25.8480171035    L0
Au    13.1400000000    4.2146570000    25.838354227499998    L0
Au    8.7600000000    11.8010400000    25.8455805484    L0
Au    17.5200000000    11.8010400000    25.8496324888    L0
Au    7.3000000000    4.2146570000    25.8548902983    L0
Au    16.0599990000    4.2146570000    25.8421867164    L0
Au    11.6800000000    11.8010400000    25.843954358    L0
Au    20.4400010000    11.8010400000    25.8493053276    L0
Au    11.6800000000    6.7434510000    25.8260769989    L0
Au    5.8400000000    6.7434510000    25.8551823871    L0
Au    14.6000000000    6.7434510000    25.8440654694    L0
Au    8.7600000000    6.7434510000    25.857567198799998    L0
Au    17.5200000000    6.7434510000    25.8488150566    L0
C    10.8680799301    5.0311910011    29.5229330605    S
C    10.6331489146    4.0783216712    30.517507319499998    S
C    10.0719050756    4.4652686942    31.7362221886    S
C    9.7334268629    5.8050212861    31.984596799400002    S
C    10.5257159075    6.3671696524    29.7498834887    S
C    9.9637609945    6.7477619852    30.970568309900003    S
C    10.4177836786    7.8485150797    38.016200536599996    S
H    9.8904331781    3.7159402942    32.510265469800004    S
H    11.3194311511    4.7344403045    28.574204298    S
H    10.6983922493    7.1146116245    28.9730188178    S
H    9.6976035529    7.7934105678    31.141661660300002    S
H    10.8882380154    3.0318794344    30.3432177192    S
C    10.2530750815    6.9299159324    39.0642486132    S
C    9.7417624616    7.3337281653    40.2999025633    S
C    9.3841108536    8.6685356109    40.5075409042    S
C    9.5485408699    9.5969606590    39.4761929952    S
C    10.0599270873    9.1872171904    38.2431901467    S
H    9.6237841162    6.6055419337    41.104892369699996    S
H    10.5346891302    5.8857743415    38.9096279758    S
H    9.2803693324    10.6427150275    39.6339984282    S
H    10.1901532135    9.9183531836    37.4418841152    S
H    8.9774491430    8.9836721373    41.470459227700005    S
C    9.1940141124    6.2286862170    33.3292809948    S
C    10.9249985377    7.4046160112    36.665621424099996    S
C    9.7927101507    7.0317216861    35.6901431314    S
C    10.3144984425    6.6020699436    34.3179563987    S
H    9.1134440587    7.8932308319    35.579033452800005    S
H    9.1868957352    6.2227309302    36.1313426503    S
H    10.9226585500    7.4116980773    33.8811033073    S
H    10.9945665267    5.7413726790    34.4304901338    S
H    8.5896563128    5.4144516887    33.7604233232    S
H    8.5199296838    7.0914230678    33.205944485399996    S
H    11.5933035349    6.5372031979    36.7872666519    S
H    11.5311869121    8.2083559381    36.2171515346    S
Au    8.7600020000    1.6858630000    44.2278790261    R0
Au    13.1400000000    9.2722460000    44.2196077162    R0
Au    2.9200000000    1.6858630000    44.2329638722    R0
Au    11.6800000000    1.6858630000    44.2262910517    R0
Au    7.3000000000    9.2722460000    44.233089948    R0
Au    16.0599990000    9.2722460000    44.225055790300004    R0
Au    5.8400010000    1.6858630000    44.228796150600004    R0
Au    14.6000000000    1.6858630000    44.2303801115    R0
Au    10.2200000000    9.2722460000    44.225053770399995    R0
Au    18.9800000000    9.2722460000    44.229536656899995    R0
Au    10.2200010000    4.2146570000    44.2238702631    R0
Au    14.6000000000    11.8010400000    44.2254962882    R0
Au    4.3800000000    4.2146570000    44.2342015519    R0
Au    13.1400000000    4.2146570000    44.225456469099996    R0
Au    8.7600000000    11.8010400000    44.229883012399995    R0
Au    17.5200000000    11.8010400000    44.2270728632    R0
Au    7.3000000000    4.2146570000    44.2289962862    R0
Au    16.0599990000    4.2146570000    44.2317955036    R0
Au    11.6800000000    11.8010400000    44.223371502999996    R0
Au    20.4400010000    11.8010400000    44.2278109998    R0
Au    11.6800000000    6.7434510000    44.2163312585    R0
Au    5.8400000000    6.7434510000    44.230847259    R0
Au    14.6000000000    6.7434510000    44.2235175105    R0
Au    8.7600000000    6.7434510000    44.2383042652    R0
Au    17.5200000000    6.7434510000    44.2302330849    R0
Au    1.4600000000    0.8429310000    46.8558409708    R0
Au    10.2200000000    0.8429310000    46.8506407665    R0
Au    5.8400010000    8.4293140000    46.8542724952    R0
Au    14.6000000000    8.4293140000    46.8448921187    R0
Au    4.3800000000    0.8429310000    46.852127232    R0
Au    13.1400010000    0.8429310000    46.8521105449    R0
Au    8.7600000000    8.4293140000    46.8510535691    R0
Au    17.5200000000    8.4293140000    46.8513495814    R0
Au    7.3000010000    0.8429310000    46.8506801317    R0
Au    11.6800000000    8.4293140000    46.8401497168    R0
Au    2.9200000000    3.3717260000    46.8575151439    R0
Au    11.6800010000    3.3717260000    46.8490329025    R0
Au    7.3000000000    10.9581090000    46.853101034000005    R0
Au    16.0599980000    10.9581090000    46.848913722700004    R0
Au    5.8400000000    3.3717260000    46.8546228765    R0
Au    14.6000000000    3.3717260000    46.853300057    R0
Au    10.2200000000    10.9581090000    46.847496852999996    R0
Au    18.9800000000    10.9581090000    46.8519357931    R0
Au    8.7600000000    3.3717260000    46.8512258941    R0
Au    13.1399990000    10.9581090000    46.8449977308    R0
Au    4.3800000000    5.9005200000    46.8556167372    R0
Au    13.1400000000    5.9005200000    46.8447141774    R0
Au    7.3000000000    5.9005200000    46.8563102656    R0
Au    16.0599990000    5.9005200000    46.8519248172    R0
Au    10.2200000000    5.9005200000    46.8481760783    R0
Au    0.0000000000    0.0000000000    49.477621405600004    R0
Au    8.7600000000    0.0000000000    49.472239271199996    R0
Au    4.3800000000    7.5863820000    49.4774824765    R0
Au    13.1399990000    7.5863820000    49.4649749568    R0
Au    2.9200000000    0.0000000000    49.4751131019    R0
Au    11.6800000000    0.0000000000    49.473994406399996    R0
Au    7.3000000000    7.5863820000    49.4770480072    R0
Au    16.0599990000    7.5863820000    49.472147123300005    R0
Au    5.8400000000    0.0000000000    49.472357507    R0
Au    10.2200000000    7.5863820000    49.465780523700005    R0
Au    1.4600000000    2.5287940000    49.4800817964    R0
Au    10.2200000000    2.5287940000    49.4733356769    R0
Au    5.8400000000    10.1151760000    49.4773071699    R0
Au    14.6000000000    10.1151760000    49.468438453299996    R0
Au    4.3800000000    2.5287940000    49.478743014900004    R0
Au    13.1400000000    2.5287940000    49.4748377309    R0
Au    8.7600000000    10.1151760000    49.472983678700004    R0
Au    17.5200000000    10.1151760000    49.4729701367    R0
Au    7.3000000000    2.5287940000    49.4759073998    R0
Au    11.6800000000    10.1151760000    49.4648583074    R0
Au    2.9200000000    5.0575880000    49.4785433199    R0
Au    11.6800000000    5.0575880000    49.4705191337    R0
Au    5.8400000000    5.0575880000    49.4799263873    R0
Au    14.6000000000    5.0575880000    49.4741018366    R0
Au    8.7600000000    5.0575880000    49.475333760699996    R0
Au    8.760002    1.685863   50.994628599488664 R1
Au   13.140000    9.272246   50.994628599488664 R1
Au    2.920000    1.685863   50.994628599488664 R1
Au   11.680000    1.685863   50.994628599488664 R1
Au    7.300000    9.272246   50.994628599488664 R1
Au   16.059999    9.272246   50.994628599488664 R1
Au    5.840001    1.685863   50.994628599488664 R1
Au   14.600000    1.685863   50.994628599488664 R1
Au   10.220000    9.272246   50.994628599488664 R1
Au   18.980000    9.272246   50.994628599488664 R1
Au   10.220001    4.214657   50.994628599488664 R1
Au   14.600000   11.801040   50.994628599488664 R1
Au    4.380000    4.214657   50.994628599488664 R1
Au   13.140000    4.214657   50.994628599488664 R1
Au    8.760000   11.801040   50.994628599488664 R1
Au   17.520000   11.801040   50.994628599488664 R1
Au    7.300000    4.214657   50.994628599488664 R1
Au   16.059999    4.214657   50.994628599488664 R1
Au   11.680000   11.801040   50.994628599488664 R1
Au   20.440001   11.801040   50.994628599488664 R1
Au   11.680000    6.743451   50.994628599488664 R1
Au    5.840000    6.743451   50.994628599488664 R1
Au   14.600000    6.743451   50.994628599488664 R1
Au    8.760000    6.743451   50.994628599488664 R1
Au   17.520000    6.743451   50.994628599488664 R1
Au    1.460000    0.842931   53.37879859948866 R1
Au   10.220000    0.842931   53.37879859948866 R1
Au    5.840001    8.429314   53.37879859948866 R1
Au   14.600000    8.429314   53.37879859948866 R1
Au    4.380000    0.842931   53.37879859948866 R1
Au   13.140001    0.842931   53.37879859948866 R1
Au    8.760000    8.429314   53.37879859948866 R1
Au   17.520000    8.429314   53.37879859948866 R1
Au    7.300001    0.842931   53.37879859948866 R1
Au   11.680000    8.429314   53.37879859948866 R1
Au    2.920000    3.371726   53.37879859948866 R1
Au   11.680001    3.371726   53.37879859948866 R1
Au    7.300000   10.958109   53.37879859948866 R1
Au   16.059998   10.958109   53.37879859948866 R1
Au    5.840000    3.371726   53.37879859948866 R1
Au   14.600000    3.371726   53.37879859948866 R1
Au   10.220000   10.958109   53.37879859948866 R1
Au   18.980000   10.958109   53.37879859948866 R1
Au    8.760000    3.371726   53.37879859948866 R1
Au   13.139999   10.958109   53.37879859948866 R1
Au    4.380000    5.900520   53.37879859948866 R1
Au   13.140000    5.900520   53.37879859948866 R1
Au    7.300000    5.900520   53.37879859948866 R1
Au   16.059999    5.900520   53.37879859948866 R1
Au   10.220000    5.900520   53.37879859948866 R1
Au    0.000000    0.000000   55.762968599488666 R1
Au    8.760000    0.000000   55.762968599488666 R1
Au    4.380000    7.586382   55.762968599488666 R1
Au   13.139999    7.586382   55.762968599488666 R1
Au    2.920000    0.000000   55.762968599488666 R1
Au   11.680000    0.000000   55.762968599488666 R1
Au    7.300000    7.586382   55.762968599488666 R1
Au   16.059999    7.586382   55.762968599488666 R1
Au    5.840000    0.000000   55.762968599488666 R1
Au   10.220000    7.586382   55.762968599488666 R1
Au    1.460000    2.528794   55.762968599488666 R1
Au   10.220000    2.528794   55.762968599488666 R1
Au    5.840000   10.115176   55.762968599488666 R1
Au   14.600000   10.115176   55.762968599488666 R1
Au    4.380000    2.528794   55.762968599488666 R1
Au   13.140000    2.528794   55.762968599488666 R1
Au    8.760000   10.115176   55.762968599488666 R1
Au   17.520000   10.115176   55.762968599488666 R1
Au    7.300000    2.528794   55.762968599488666 R1
Au   11.680000   10.115176   55.762968599488666 R1
Au    2.920000    5.057588   55.762968599488666 R1
Au   11.680000    5.057588   55.762968599488666 R1
Au    5.840000    5.057588   55.762968599488666 R1
Au   14.600000    5.057588   55.762968599488666 R1
Au    8.760000    5.057588   55.762968599488666 R1
Au    8.760002    1.685863   58.14713859948866 R2
Au   13.140000    9.272246   58.14713859948866 R2
Au    2.920000    1.685863   58.14713859948866 R2
Au   11.680000    1.685863   58.14713859948866 R2
Au    7.300000    9.272246   58.14713859948866 R2
Au   16.059999    9.272246   58.14713859948866 R2
Au    5.840001    1.685863   58.14713859948866 R2
Au   14.600000    1.685863   58.14713859948866 R2
Au   10.220000    9.272246   58.14713859948866 R2
Au   18.980000    9.272246   58.14713859948866 R2
Au   10.220001    4.214657   58.14713859948866 R2
Au   14.600000   11.801040   58.14713859948866 R2
Au    4.380000    4.214657   58.14713859948866 R2
Au   13.140000    4.214657   58.14713859948866 R2
Au    8.760000   11.801040   58.14713859948866 R2
Au   17.520000   11.801040   58.14713859948866 R2
Au    7.300000    4.214657   58.14713859948866 R2
Au   16.059999    4.214657   58.14713859948866 R2
Au   11.680000   11.801040   58.14713859948866 R2
Au   20.440001   11.801040   58.14713859948866 R2
Au   11.680000    6.743451   58.14713859948866 R2
Au    5.840000    6.743451   58.14713859948866 R2
Au   14.600000    6.743451   58.14713859948866 R2
Au    8.760000    6.743451   58.14713859948866 R2
Au   17.520000    6.743451   58.14713859948866 R2
Au    1.460000    0.842931   60.53130859948866 R2
Au   10.220000    0.842931   60.53130859948866 R2
Au    5.840001    8.429314   60.53130859948866 R2
Au   14.600000    8.429314   60.53130859948866 R2
Au    4.380000    0.842931   60.53130859948866 R2
Au   13.140001    0.842931   60.53130859948866 R2
Au    8.760000    8.429314   60.53130859948866 R2
Au   17.520000    8.429314   60.53130859948866 R2
Au    7.300001    0.842931   60.53130859948866 R2
Au   11.680000    8.429314   60.53130859948866 R2
Au    2.920000    3.371726   60.53130859948866 R2
Au   11.680001    3.371726   60.53130859948866 R2
Au    7.300000   10.958109   60.53130859948866 R2
Au   16.059998   10.958109   60.53130859948866 R2
Au    5.840000    3.371726   60.53130859948866 R2
Au   14.600000    3.371726   60.53130859948866 R2
Au   10.220000   10.958109   60.53130859948866 R2
Au   18.980000   10.958109   60.53130859948866 R2
Au    8.760000    3.371726   60.53130859948866 R2
Au   13.139999   10.958109   60.53130859948866 R2
Au    4.380000    5.900520   60.53130859948866 R2
Au   13.140000    5.900520   60.53130859948866 R2
Au    7.300000    5.900520   60.53130859948866 R2
Au   16.059999    5.900520   60.53130859948866 R2
Au   10.220000    5.900520   60.53130859948866 R2
Au    0.000000    0.000000   62.915478599488665 R2
Au    8.760000    0.000000   62.915478599488665 R2
Au    4.380000    7.586382   62.915478599488665 R2
Au   13.139999    7.586382   62.915478599488665 R2
Au    2.920000    0.000000   62.915478599488665 R2
Au   11.680000    0.000000   62.915478599488665 R2
Au    7.300000    7.586382   62.915478599488665 R2
Au   16.059999    7.586382   62.915478599488665 R2
Au    5.840000    0.000000   62.915478599488665 R2
Au   10.220000    7.586382   62.915478599488665 R2
Au    1.460000    2.528794   62.915478599488665 R2
Au   10.220000    2.528794   62.915478599488665 R2
Au    5.840000   10.115176   62.915478599488665 R2
Au   14.600000   10.115176   62.915478599488665 R2
Au    4.380000    2.528794   62.915478599488665 R2
Au   13.140000    2.528794   62.915478599488665 R2
Au    8.760000   10.115176   62.915478599488665 R2
Au   17.520000   10.115176   62.915478599488665 R2
Au    7.300000    2.528794   62.915478599488665 R2
Au   11.680000   10.115176   62.915478599488665 R2
Au    2.920000    5.057588   62.915478599488665 R2
Au   11.680000    5.057588   62.915478599488665 R2
Au    5.840000    5.057588   62.915478599488665 R2
Au   14.600000    5.057588   62.915478599488665 R2
Au    8.760000    5.057588   62.915478599488665 R2
Au    8.760002    1.685863   65.29964859948866 R3
Au   13.140000    9.272246   65.29964859948866 R3
Au    2.920000    1.685863   65.29964859948866 R3
Au   11.680000    1.685863   65.29964859948866 R3
Au    7.300000    9.272246   65.29964859948866 R3
Au   16.059999    9.272246   65.29964859948866 R3
Au    5.840001    1.685863   65.29964859948866 R3
Au   14.600000    1.685863   65.29964859948866 R3
Au   10.220000    9.272246   65.29964859948866 R3
Au   18.980000    9.272246   65.29964859948866 R3
Au   10.220001    4.214657   65.29964859948866 R3
Au   14.600000   11.801040   65.29964859948866 R3
Au    4.380000    4.214657   65.29964859948866 R3
Au   13.140000    4.214657   65.29964859948866 R3
Au    8.760000   11.801040   65.29964859948866 R3
Au   17.520000   11.801040   65.29964859948866 R3
Au    7.300000    4.214657   65.29964859948866 R3
Au   16.059999    4.214657   65.29964859948866 R3
Au   11.680000   11.801040   65.29964859948866 R3
Au   20.440001   11.801040   65.29964859948866 R3
Au   11.680000    6.743451   65.29964859948866 R3
Au    5.840000    6.743451   65.29964859948866 R3
Au   14.600000    6.743451   65.29964859948866 R3
Au    8.760000    6.743451   65.29964859948866 R3
Au   17.520000    6.743451   65.29964859948866 R3
Au    1.460000    0.842931   67.68381859948866 R3
Au   10.220000    0.842931   67.68381859948866 R3
Au    5.840001    8.429314   67.68381859948866 R3
Au   14.600000    8.429314   67.68381859948866 R3
Au    4.380000    0.842931   67.68381859948866 R3
Au   13.140001    0.842931   67.68381859948866 R3
Au    8.760000    8.429314   67.68381859948866 R3
Au   17.520000    8.429314   67.68381859948866 R3
Au    7.300001    0.842931   67.68381859948866 R3
Au   11.680000    8.429314   67.68381859948866 R3
Au    2.920000    3.371726   67.68381859948866 R3
Au   11.680001    3.371726   67.68381859948866 R3
Au    7.300000   10.958109   67.68381859948866 R3
Au   16.059998   10.958109   67.68381859948866 R3
Au    5.840000    3.371726   67.68381859948866 R3
Au   14.600000    3.371726   67.68381859948866 R3
Au   10.220000   10.958109   67.68381859948866 R3
Au   18.980000   10.958109   67.68381859948866 R3
Au    8.760000    3.371726   67.68381859948866 R3
Au   13.139999   10.958109   67.68381859948866 R3
Au    4.380000    5.900520   67.68381859948866 R3
Au   13.140000    5.900520   67.68381859948866 R3
Au    7.300000    5.900520   67.68381859948866 R3
Au   16.059999    5.900520   67.68381859948866 R3
Au   10.220000    5.900520   67.68381859948866 R3
Au    0.000000    0.000000   70.06798859948866 R3
Au    8.760000    0.000000   70.06798859948866 R3
Au    4.380000    7.586382   70.06798859948866 R3
Au   13.139999    7.586382   70.06798859948866 R3
Au    2.920000    0.000000   70.06798859948866 R3
Au   11.680000    0.000000   70.06798859948866 R3
Au    7.300000    7.586382   70.06798859948866 R3
Au   16.059999    7.586382   70.06798859948866 R3
Au    5.840000    0.000000   70.06798859948866 R3
Au   10.220000    7.586382   70.06798859948866 R3
Au    1.460000    2.528794   70.06798859948866 R3
Au   10.220000    2.528794   70.06798859948866 R3
Au    5.840000   10.115176   70.06798859948866 R3
Au   14.600000   10.115176   70.06798859948866 R3
Au    4.380000    2.528794   70.06798859948866 R3
Au   13.140000    2.528794   70.06798859948866 R3
Au    8.760000   10.115176   70.06798859948866 R3
Au   17.520000   10.115176   70.06798859948866 R3
Au    7.300000    2.528794   70.06798859948866 R3
Au   11.680000   10.115176   70.06798859948866 R3
Au    2.920000    5.057588   70.06798859948866 R3
Au   11.680000    5.057588   70.06798859948866 R3
Au    5.840000    5.057588   70.06798859948866 R3
Au   14.600000    5.057588   70.06798859948866 R3
Au    8.760000    5.057588   70.06798859948866 R3
