      34
 i =       53, E =      -101.7257537966
C   -0.9776513150801025   -10.170810431757761   3.9825721171498616
C   -0.9413033228811736   -11.263111869531382   4.853577663123123
C   -1.3128826159179134   -11.105940919402055   6.191214770433431
C   -1.727253888604619   -9.859679233926638   6.685554887873538
C   -1.3910576900286957   -8.923935194528033   4.459607263414904
C   -1.7615008895450959   -8.772990998716653   5.798129086118992
C   -0.3851529579675641   -8.51233355850312   12.808896933719515
H   -1.2873316088713813   -11.966349492598638   6.864192837999622
H   -0.6911668430155486   -10.291717290935335   2.937142485813318
H   -1.4296999060546225   -8.066531853151478   3.7858932403060654
H   -2.0893075130096257   -7.796104562061512   6.161556710703131
H   -0.6268603136949873   -12.242361204611644   4.489258093656429
C   -0.3566554334448364   -9.596646051070627   13.699422759988318
C   -0.7301394034146487   -9.440782285763255   15.036558764911323
C   -1.1406706674450149   -8.191260492910743   15.509098466762545
C   -1.1711796608046279   -7.101269282148668   14.634984369707235
C   -0.7967166276257354   -7.263345297859752   13.298755750030065
H   -0.6961936800983581   -10.2964950215929   15.712673202725458
H   -0.03122705315594132   -10.575620477498761   13.339517299195386
H   -1.4832746440448847   -6.1199769580037575   14.995826721590504
H   -0.8176981689779041   -6.404713230810499   12.62336639667428
H   -1.4296999060546227   -8.066531853151478   16.55339094930198
C   -2.083083922640209   -9.681677488142466   8.14225745542347
C   -0.02688289024666224   -8.695340593961017   11.353382871101465
C   -1.2348831732368937   -9.09306832134178   10.484818362926601
C   -0.8748682671305716   -9.28239867381394   9.009845249804442
H   -2.0174641696486937   -8.321942268548515   10.58186537388683
H   -1.674583246343821   -10.022418904731557   10.883985720036122
H   -0.4366461341554211   -8.352519536258226   8.610323409523684
H   -0.09137315541533741   -10.0525553204763   8.912455886220448
H   -2.5135534971546973   -10.617055711038336   8.534764870038055
H   -2.865116210592686   -8.911487786605175   8.240309858082504
H   0.7528796408878007   -9.468291890485226   11.258817330191707
H   0.4072415299680965   -7.7623356341807686   10.959244844756498
