81
	Energy:    1538.2896439
H         -1.39534       -3.58647        0.47569
C         -0.97023       -2.65447        0.12380
C         -1.80264       -1.59603       -0.27678
C         -1.22422       -0.39830       -0.72774
H         -1.85102        0.42759       -1.04115
C          0.16602       -0.26088       -0.77685
H          0.60034        0.66724       -1.12661
C          0.98973       -1.31802       -0.37610
C          0.42023       -2.51408        0.07413
H          1.05284       -3.33555        0.38571
C         -3.30165       -1.73648       -0.22703
N         -3.89155       -0.71180        0.65435
H         -3.58878       -2.75231        0.08466
H         -3.68480       -1.59636       -1.26122
C         -3.56952       -0.86308        2.08371
C         -5.36021       -0.72343        0.65032
C         -7.81683       -3.71170        7.53390
C         -8.77953       -4.83574        7.45878
C         -7.98649       -6.06836        7.40855
C         -6.58868       -5.62415        7.47111
C         -6.55110       -4.16475        7.62610
C         -5.37823       -3.37075        7.16649
C         -4.29652       -4.08013        6.47884
C         -4.38435       -5.54965        6.34575
C         -5.58808       -6.24923        6.81236
C         -5.90034       -7.34412        5.88542
C         -7.29322       -7.86166        5.74206
C         -8.35936       -7.17860        6.49792
C         -9.53197       -7.03654        5.61618
C        -10.32495       -5.76713        5.65277
C         -9.97610       -4.68090        6.60389
C        -10.15839       -3.38646        5.91132
C        -10.49849       -3.71015        4.53050
C        -10.59319       -5.09928        4.37172
C        -10.19784       -5.67261        3.14926
C         -9.51836       -6.88688        3.08282
C         -9.17895       -7.64901        4.31123
C         -7.80609       -8.19977        4.40627
C         -6.88256       -8.07453        3.24574
C         -5.51203       -7.57329        3.48006
C         -5.03934       -7.25218        4.84851
C         -4.03700       -6.19175        5.08248
C         -3.59930       -5.36993        3.93307
C         -3.54099       -3.90231        4.04347
C         -3.88224       -3.26151        5.32558
C         -4.67789       -2.03811        5.32540
C         -5.06526       -1.38284        4.04920
C         -4.57264       -1.86716        2.68309
C         -3.92041       -3.27624        2.75382
C         -4.33850       -4.40505        1.90093
C         -4.10703       -5.68764        2.60515
C         -5.10553       -6.78948        2.45332
C         -6.24840       -6.60192        1.57044
C         -7.33104       -7.33184        2.07434
C         -8.61433       -6.76425        2.02631
C         -8.80187       -5.53651        1.41924
C         -9.77940       -4.86774        2.10323
C         -9.68303       -3.48472        2.26044
C         -9.99982       -2.92593        3.46988
C         -9.12807       -1.86020        3.66471
C         -8.31719       -1.70531        2.53293
C         -8.62623       -2.76733        1.71074
C         -7.62075       -3.44796        1.01849
C         -7.71731       -4.82368        0.89743
C         -6.45712       -5.33380        0.99671
C         -5.57705       -4.26276        1.13388
C         -6.28103       -3.05674        1.07416
C         -5.81859       -1.73194        1.72153
C         -6.94140       -1.14003        2.58700
C         -6.44852       -0.89466        3.94634
C         -7.38448       -0.95870        5.10439
C         -8.73375       -1.47980        4.89496
C         -9.14772       -2.29480        6.05704
C         -8.06999       -2.41234        6.85320
C         -6.95678       -1.56548        6.36278
C         -5.59051       -2.09314        6.48076
H         -5.82381       -0.86458       -0.35126
H         -5.65847        0.30143        0.97244
S          2.76936       -1.14033       -0.43973
H         -3.75608        0.14193        2.52999
H         -2.50286       -1.08669        2.30489
