81
	Energy:    1538.2896439
H   -0.4184997789143228   -3.440663953996414   1.7385946173039941
C   -0.08365148661787614   -2.552385193110206   1.217052147025096
C   0.3408202271793871   -1.4209080399831913   1.9334662690506181
C   0.7688246886294199   -0.28235981645965835   1.2313182115938768
H   1.100129581422606   0.5984007611088078   1.767691433532256
C   0.7717709266416901   -0.2752298205506717   -0.16653864407479732
H   1.1041994931983143   0.6083266903168908   -0.6968138505861396
C   0.3474113721518419   -1.4046010492107517   -0.8744110214056261
C   -0.08016193825622826   -2.542318671538044   -0.1813190343125592
H   -0.4098424900294103   -3.4192205185299263   -0.7239463041071723
C   0.3408202271793871   -1.4209080399831913   3.4398633764230393
N   -0.5238389046660771   -0.34566660179545755   3.9604421429130134
H   0.0418712433857575   -2.4055229276278607   3.8305907878203347
H   1.386613047681774   -1.2456563025645735   3.7739153156741363
C   -1.962542041110841   -0.5263279970658965   3.7013018057539018
C   -0.4714830816839539   -0.22023959563626094   5.4228513289228
C   -7.261323521851021   -2.9663089237901725   8.373373837859853
C   -7.151126169802402   -3.9956403145883446   9.433672690787166
C   -7.123202619052517   -5.2968652273276655   8.757786930706319
C   -7.23305955916231   -4.984989230805162   7.327481407643917
C   -7.393696926458983   -3.53545895000018   7.159136173801601
C   -6.975349934068907   -2.854334396768094   5.902809573771748
C   -6.32145811966204   -3.6615300448725163   4.869833430904462
C   -6.181025316850191   -5.116448543951648   5.089849058376099
C   -6.605644653646077   -5.700686010361266   6.368312191619404
C   -5.665569418536166   -6.761671848739656   6.750510813272532
C   -5.474892742290283   -7.147017977877617   8.180079000346593
C   -6.197388229354403   -6.367480028378881   9.202268150779764
C   -5.278009354761154   -6.116650715122946   10.326762625583086
C   -5.292415664127586   -4.778801829817054   10.998708066029124
C   -6.25783417394011   -3.7298515842821933   10.581704860881109
C   -5.563635944174982   -2.4240510382961196   10.619540221239319
C   -4.171388835818253   -2.7146027514743434   10.942549183563159
C   -4.005301819779406   -4.088840928501207   11.161057469916779
C   -2.7947421414447007   -4.696551662539212   10.780728281022261
C   -2.746939909456394   -5.968912968392834   10.215599418829395
C   -3.9834922029302335   -6.759381949689806   9.989480803470302
C   -4.121925654573469   -7.43580968464241   8.677842340458092
C   -2.9927819055968206   -7.397268788443025   7.708836874597807
C   -3.2735838366050403   -7.026066624450479   6.306032857676946
C   -4.657819542624095   -6.750452530343612   5.85091611220214
C   -4.927887702629594   -5.788151635913405   4.76234852177421
C   -3.796028990504349   -5.01074689108353   4.212211748778458
C   -3.9128076462256547   -3.554966286373992   4.0209991523851825
C   -5.184971557084649   -2.885126573731146   4.343173015189882
C   -5.162398379452234   -1.592837977302619   5.020850777915179
C   -3.8761759227646158   -0.9042889862425151   5.303079069591586
C   -2.525517246702548   -1.432451853526436   4.812913806337763
C   -2.6133139755774   -2.896231591240041   4.297594714843992
C   -1.7436639617574006   -3.9811169942057827   4.790712481908552
C   -2.4511594718409535   -5.279707049275618   4.703218199322005
C   -2.263185191822521   -6.283595587549796   5.794538251952436
C   -1.3437850233818214   -5.990239029595639   6.8851586923791235
C   -1.8095622026511684   -6.6159802661336675   8.047185933956424
C   -1.7211101811991882   -5.931151602150256   9.269677019399484
C   -1.111987187825614   -4.691270442694795   9.32177916399063
C   -1.7655215111696103   -3.934226303978023   10.254751614894667
C   -1.9300754721654476   -2.5662272716744003   10.035099337563125
C   -3.1301606516842924   -1.980321727959074   10.338179421935012
C   -3.356832456358763   -1.000561648758561   9.377774661185345
C   -2.252810236641899   -0.9219913124113025   8.51905183307506
C   -1.4176350077691697   -1.9505508699115408   8.898441042004752
C   -0.7567276976238267   -2.7220106510402697   7.938488635217176
C   -0.6283202595414767   -4.082723792017576   8.158843243557468
C   -0.7674118117633767   -4.708178145208702   6.955673196941126
C   -0.936745006049139   -3.723907365811094   5.984589885614541
C   -0.8576250371115599   -2.457474562576323   6.570701261213273
C   -1.5239292893522287   -1.1815910741605535   6.008390245907678
C   -2.353830751209493   -0.48751909528597315   7.09908989147849
C   -3.729391965560056   -0.2891981779477282   6.630642961484792
C   -4.855836895569845   -0.26564639674727164   7.606229543474071
C   -4.600549268193827   -0.6586052302101709   8.990551489522822
C   -5.745872365546231   -1.4314334059384486   9.51685719989617
C   -6.576673641370042   -1.6489986114438508   8.481664960965198
C   -6.125734582013871   -0.9096790866542602   7.278759833737008
C   -6.286949996780919   -1.562492795166404   5.972282921993019
H   0.5452294240488725   -0.31752641688159866   5.8642601349048
H   -0.7867774945187237   0.8279749549443385   5.634733444228196
S   0.35194177717765185   -1.3937015261639698   -2.663982513614768
H   -2.4055404668753715   0.49170300074989043   3.8079828929078148
H   -2.2179861801401386   -0.848467980267072   2.6680256068802772
