      81
 i =      202, E =      -418.1848880208
  C        10.6402595057        4.1834249663       20.2914246109
  C        10.5537977774        2.9155888064       19.5979737573
  C        10.3676472790        3.1764251517       18.1859728488
  C        10.3378762868        4.6393316281       18.0051664339
  C        10.5075428185        5.2411654691       19.3103032277
  C         9.8241291764        6.4140221202       19.6495298805
  C         8.9235184538        7.0009008942       18.6912708449
  C         8.7535020147        6.3924989568       17.4396586140
  C         9.4948453489        5.2176610943       17.0742995643
  C         8.7377636323        4.4301684591       16.0041620052
  C         8.7703539172        2.8304669334       16.2024231356
  C         9.5503967425        2.3585712672       17.4293950924
  C         8.8533210962        1.2808653920       18.0727346447
  C         9.0403713624        1.0011033115       19.4332108963
  C         9.9153648372        1.8345070865       20.2161659462
  C         9.3373591083        1.9817766480       21.5367307575
  C         8.0953868596        1.2282270865       21.5672960213
  C         7.9132888450        0.6211089569       20.2630538835
  C         6.6408799264        0.5251456420       19.7012544363
  C         6.4437414915        0.8008890037       18.2883120343
  C         7.5307581461        1.1823246840       17.4897641580
  C         7.4019259960        2.2052438462       16.4883853237
  C         6.1972174940        2.8661530815       16.3506517845
  C         6.1674336437        4.3313594562       16.1699274812
  C         7.3448185778        5.0527569905       16.1376468036
  C         7.4294814238        6.2939445094       16.8573638303
  C         6.3231170550        6.8154230577       17.5447886241
  C         6.5050482321        7.4276347823       18.8484736567
  C         7.7775887446        7.5234063578       19.4100899926
  C         7.9747114939        7.2530191180       20.8227267230
  C         6.8869072189        6.8930294595       21.6246172904
  C         5.5620386599        6.7911509573       21.0398599824
  C         5.3777666667        7.0523783270       19.6781725987
  C         4.5025692534        6.2112529413       18.8832576509
  C         5.0893456068        6.0687957680       17.5658895818
  C         5.0210250970        4.8385849865       16.8947527317
  C         4.3469605134        3.7173546444       17.5211423664
  C         5.0691909713        2.5055123707       17.1832173273
  C         5.1839002305        1.4810812807       18.1337075455
  C         4.5941396808        1.6348843025       19.4493221831
  C         5.4948714484        1.0427197678       20.4210409680
  C         5.6632314425        1.6330543435       21.6781391495
  C         6.9894254678        1.7287131565       22.2637110701
  C         7.0827589054        3.0008921507       22.9561918340
  C         5.8130991109        3.6895886171       22.8015155803
  C         4.9365568586        2.8429821659       22.0114992541
  C         4.0698706292        3.4154937743       21.0727530621
  C         3.8985610906        2.8024820374       19.7720673325
  C         3.7710780536        3.8609061978       18.7872148885
  C         3.8527861348        5.1302016720       19.4843189281
  C         4.0411202619        4.8571305288       20.8948009561
  C         4.8815125734        5.6722467168       21.6610515928
  C         5.7858172952        5.0782804409       22.6299857099
  C         7.0262045967        5.8333195427       22.6065326850
  C         8.2514371260        5.1707682490       22.7495036995
  C         8.2804383006        3.7264021712       22.9276992463
  C         9.4249918085        3.2087326168       22.2052273028
  C        10.0975184272        4.3291864314       21.5712781314
  C         9.3771379163        5.5424110432       21.9165505969
  C         9.2431221241        6.5639369534       20.9698072802
  C         9.3745420112        2.3316431582       14.8555306694
  C         9.3225249810        4.6083515528       14.5721404106
  N         8.9736948437        3.3591102930       13.9039247841
  H         8.9867295300        1.3446698895       14.5691681718
  H        10.4793958187        2.2577634898       14.9577083019
  H        10.4241334513        4.7467186432       14.6386223182
  H         8.8960719273        5.4777295582       14.0550644634
  C         8.8249291964        4.0808005478       11.5402954110
  C         9.5269275721        4.5490375851       10.4123771964
  C         8.8982816408        5.3271136634        9.4536294397
  C         7.5214240962        5.6823801390        9.5839899404
  C         7.4620252685        4.4126934676       11.6783455410
  C         6.8237602171        5.1934226271       10.7299225271
  H        10.5836552675        4.2983106371       10.2957512259
  H         6.9223960220        4.0480266958       12.5532225546
  H         5.7698078962        5.4498993197       10.8385540288
  H         9.4450229908        5.6882358616        8.5825977007
  S         6.7412301651        6.6601112708        8.4207519502
  C         9.5159796590        3.2052146507       12.5605338411
  H        10.6120151588        3.3923303669       12.5274789964
  H         9.3782042654        2.1497898764       12.2653005678