81
	Energy:    2240.0172445
C   3.111584793083726   0.13160210052795368   -1.2966929466865853
C   3.050625624836429   -1.0157417105240865   -2.052595476876277
C   2.8497037991268903   -0.6807312543227692   -3.3940343227389316
C   2.7305551191002455   0.7094170798676317   -3.456464932983919
C   2.8606674375436594   1.1841489884776355   -2.1480457132623565
C   2.1580128363111974   2.3020818152126705   -1.677318959853265
C   1.198575330111979   2.88691445384145   -2.4886045055107258
C   1.0064408892666008   2.4395195427635485   -3.830431191443984
C   1.968030439692492   1.4774788942493273   -4.526343814204966
C   1.027685420706327   0.5816560502982645   -5.426094445281899
C   1.164027958903574   -1.0114148180971836   -5.342924479863459
C   2.2364088288884503   -1.6539382361270598   -4.382730000461664
C   1.450897054499671   -2.707410514907197   -3.6061374217317517
C   1.707947629920004   -3.002409359596463   -2.235234562223437
C   2.5471742854422152   -2.1951975098638083   -1.4842114725569528
C   2.1015071360638746   -2.1875104859683425   -0.15350631339185244
C   0.9657772787617295   -2.982588075290564   -0.08041863255564533
C   0.7217716183535983   -3.4719951796589785   -1.3627108511947958
C   -0.5940653373606454   -3.6004575740546043   -1.8168900168363018
C   -0.8929910145690648   -3.2130992989619145   -3.1140859542423294
C   0.1147134041466017   -2.737994835999168   -3.9964148050535226
C   -0.13472017696108451   -1.7343823567098478   -4.9468280489272285
C   -1.3955572112729604   -1.1026086490883487   -4.8242275670121115
C   -1.5140456705008023   0.2720399742194289   -4.884303082555839
C   -0.37932196523284945   1.0999596388184987   -5.074676257591431
C   -0.3126117260283714   2.206520964648646   -4.2109656238938316
C   -1.392882067162959   2.5720088519385387   -3.361400071149764
C   -1.1746653758502876   3.111696846303263   -2.10345423158785
C   0.13984502138011273   3.2504381927825614   -1.6503491174583724
C   0.45486072628393404   2.919691840561366   -0.33276730510047514
C   -0.5502391137005143   2.4401639822468657   0.544990075138247
C   -1.8640796324802462   2.3078875528505147   0.08869641745850554
C   -2.1795562514200633   2.654441769131611   -1.247110212926333
C   -3.0313232242868557   1.845527932183563   -1.9955581753307532
C   -2.5384885977090663   1.8091109206766744   -3.304286532943148
C   -2.5912364712099385   0.6331046896855468   -4.056190748259952
C   -3.146746853743048   -0.5056567602669337   -3.499816658820084
C   -2.400890409843701   -1.5741374391817853   -3.962166917368166
C   -2.1530633887581816   -2.656057325310753   -3.1139544391420086
C   -2.6416614197621406   -2.666577170994482   -1.8031912608958982
C   -1.6684845474330294   -3.251262888865763   -0.995350411544323
C   -1.4263135318575133   -2.744824750378743   0.3042042447902712
C   -0.1133037135540127   -2.6107990678338084   0.7605865034912127
C   -0.03671411590511875   -1.4379667475673277   1.5187017638377678
C   -1.3030261366604494   -0.8443594106975806   1.5267140671868387
C   -2.162887573567616   -1.6531535639477788   0.7764384484384765
C   -3.1550591681427416   -1.061437793420871   -0.04397862794889429
C   -3.3932617715980258   -1.5688119472898854   -1.3259365379805872
C   -3.6514603489645374   -0.4930754876079533   -2.174612651499103
C   -3.5865499959065477   0.6806755874562158   -1.4224385051396347
C   -3.27480885150757   0.33057831830412215   -0.10414932623348061
C   -2.4051932840120185   1.1504306791169967   0.6568818855699157
C   -1.4250848037715278   0.566323715144344   1.4666200371345588
C   -0.2792794187820338   1.3657261253656539   1.3990383771857324
C   1.0004594194420697   0.7648037414991073   1.3898481264291447
C   1.121157434110623   -0.6285869309492825   1.4492652661187484
C   2.178321282177997   -1.0043801865838409   0.6174729084002117
C   2.691452978099787   0.15154803695277475   0.04371608598159182
C   1.9834812250811602   1.2457669825736537   0.5212714365662805
C   1.7104747936393947   2.328925066920078   -0.34673167477976585
C   1.573823344196401   -1.3918690173479877   -6.766846807613513
C   1.3672404101429456   0.8815366148487652   -6.901512318988725
N   1.0939859455335983   -0.34098088519336434   -7.679632331622896
H   1.2579994257778528   -2.414599080530908   -7.072159273485142
H   2.693200407577164   -1.3774214287713356   -6.788454122610518
H   2.4668242360584207   1.075921690329824   -6.9341812142150285
H   0.867653781711925   1.7871673984496463   -7.310856921722632
C   1.0939859455335985   -0.3409808851933643   -10.192774922802313
C   0.6642479610912377   0.8797868917287304   -10.737105283204986
C   -0.0038630847515421785   0.9010657662709078   -11.968016629046387
C   -0.2529430374262045   -0.2924571006935518   -12.653903784056979
C   0.8411050036598171   -1.5345226084269077   -10.892076134825954
C   0.1648031408487789   -1.509730857127882   -12.112423564997314
H   0.8735449067494723   1.8125612399357525   -10.228222808693339
H   1.176762723571645   -2.4853587681344225   -10.495702893730824
H   -0.021167784138487633   -2.4345840751470136   -12.643227067226753
H   -0.3167281588376878   1.8431365053310806   -12.398906386436476
H   -0.7617496095947711   -0.27547208683506547   -13.608865133653023
C   1.9088655070247655   -0.380763867623215   -8.932709908141184
H   2.690476472499336   0.4109070913545955   -8.98854466399328
H   2.515617138581052   -1.3145905798497914   -8.989594287683257
