     117
 i =       57, E =     -1614.5792572096
 Au         1.6649000000        0.0000000000        0.0000000000
 Au         6.6598000000        0.0000000000        0.0000000000
 Au         4.1623000000        1.4419000000        0.0000000000
 Au         9.1572000000        1.4419000000        0.0000000000
 Au         6.6598000000        2.8838000000        0.0000000000
 Au        11.6546000000        2.8838000000        0.0000000000
 Au         4.1623000000        4.3256000000        0.0000000000
 Au         9.1572000000        4.3256000000        0.0000000000
 Au         6.6598000000        5.7675000000        0.0000000000
 Au        11.6546000000        5.7675000000        0.0000000000
 Au         9.1572000000        7.2094000000        0.0000000000
 Au        14.1520000000        7.2094000000        0.0000000000
 Au         3.3299000000        0.0000000000        2.3546000000
 Au         8.3247000000        0.0000000000        2.3546000000
 Au         5.8273000000        1.4419000000        2.3546000000
 Au        10.8221000000        1.4419000000        2.3546000000
 Au         8.3247000000        2.8838000000        2.3546000000
 Au        13.3195000000        2.8838000000        2.3546000000
 Au         5.8273000000        4.3256000000        2.3546000000
 Au        10.8221000000        4.3256000000        2.3546000000
 Au         8.3247000000        5.7675000000        2.3546000000
 Au        13.3195000000        5.7675000000        2.3546000000
 Au        10.8221000000        7.2094000000        2.3546000000
 Au        15.8169000000        7.2094000000        2.3546000000
 Au         0.0000000000        0.0000000000        4.7091000000
 Au         4.9948000000        0.0000000000        4.7091000000
 Au         2.4974000000        1.4419000000        4.7091000000
 Au         7.4922000000        1.4419000000        4.7091000000
 Au         4.9948000000        2.8838000000        4.7091000000
 Au         9.9896000000        2.8838000000        4.7091000000
 Au         2.4974000000        4.3256000000        4.7091000000
 Au         7.4922000000        4.3256000000        4.7091000000
 Au         4.9948000000        5.7675000000        4.7091000000
 Au         9.9896000000        5.7675000000        4.7091000000
 Au         7.4922000000        7.2094000000        4.7091000000
 Au        12.4870000000        7.2094000000        4.7091000000
  C         6.4690118910        0.3453130448       17.7003209780
  C         7.8700997999        0.4693555992       17.3581480086
  C         7.9755201497        0.7373565222       15.9396260690
  C         6.6072451749        0.7814958214       15.3965238322
  C         5.6927971387        0.5403830805       16.4913618789
  C         4.4672187614        1.2130801627       16.5553038422
  C         4.1322556222        2.1693004575       15.5290071188
  C         5.0420815457        2.4103126052       14.4898504903
  C         6.2822946309        1.6917552436       14.4102325061
  C         7.3092981568        2.4874370233       13.6168387266
  C         8.8018919677        2.4364395706       14.1952699574
  C         8.9520481288        1.5901820259       15.4590938037
  C         9.8298991149        2.2361974934       16.3959236291
  C         9.7617756968        1.9682346631       17.7712533886
  C         8.7567394716        1.0607618344       18.2653677642
  C         8.2727611559        1.5661543862       19.5349913969
  C         8.9853121339        2.7985549756       19.8255704506
  C         9.9066740573        3.0463191333       18.7322458299
  C        10.1282951839        4.3496525150       18.2856825469
  C        10.2124738815        4.6259566909       16.8624080803
  C        10.0596869197        3.5885216924       15.9328567152
  C         9.3264087290        3.7777374148       14.7096954189
  C         8.7101754947        4.9946306286       14.4827089295
  C         7.3414679679        5.0437098010       13.9365482321
  C         6.6628540774        3.8735950002       13.6471316629
  C         5.2767613445        3.7623062331       14.0224442264
  C         4.5908105019        4.8326321806       14.6154186608
  C         3.6642479220        4.5846222810       15.7067767831
  C         3.4410057001        3.2810099829       16.1546473666
  C         3.3521494513        3.0041323264       17.5759643270
  C         3.4884704252        4.0427000522       18.5014106002
  C         3.7199977265        5.3985529146       18.0372040071
  C         3.8055943276        5.6633311829       16.6658770407
  C         4.8209237631        6.5721425915       16.1642938401
  C         5.2985973996        6.0585941127       14.8957877518
  C         6.6585962630        6.1529165932       14.5692070895
  C         7.5787935215        6.7859643191       15.4949083937
  C         8.8390256208        6.0718809890       15.4398939343
  C         9.5896017433        5.8988599531       16.6105582966
  C         9.1056094794        6.4174828224       17.8749850147
  C         9.4414953853        5.4608379935       18.9147842823
  C         8.5498515577        5.2255499494       19.9671028603
  C         8.3164668306        3.8681747000       20.4315037858
  C         6.9100054221        3.7454577597       20.7696228213
  C         6.2739904202        5.0266229559       20.5160451609
  C         7.2878349115        5.9405195925       20.0193100375
  C         6.9667582140        6.8626056310       19.0166692410
  C         7.8896857836        7.1028907223       17.9269179903
  C         7.1147716470        7.2925655952       16.7127695646
  C         5.7117455943        7.1761753383       17.0564785925
  C         5.6181804317        6.9077271106       18.4766169219
  C         4.6402748498        6.0340536363       18.9613375536
  C         4.9753069755        5.0734026540       19.9973521975
  C         4.2615487698        3.8415669980       19.7122358208
  C         4.8739077711        2.6061527861       19.9516663354
  C         6.2244405362        2.5567248027       20.4911908509
  C         6.9171596363        1.4501115806       19.8618974746
  C         5.9990816846        0.8197239510       18.9289002529
  C         4.7345624290        1.5307430484       18.9906304301
  C         3.9862780974        1.7236189829       17.8239575140
  C         9.6311244633        1.8616782063       12.9558380694
  C         7.4861488986        1.8860382537       12.1628433342
  N         8.8607548951        2.1072554343       11.7448337607
  H        10.6356399567        2.2991297033       12.8971499000
  H         9.7362787206        0.7757187977       13.1029386568
  H         7.3143314645        0.8006117388       12.2335502273
  H         6.7623372417        2.3000379042       11.4531441295
  C         8.2096868791        3.6508084487        9.9205514954
  C         7.5609132618        4.8856327465        9.7812219968
  C         6.6124051782        5.0958845659        8.7804551941
  C         6.2697319709        4.0479567925        7.9091059319
  C         7.9177715772        2.6359669112        8.9952382272
  C         6.9530438383        2.8221784680        8.0100523743
  H         7.7776894111        5.6903016445       10.4864955587
  H         8.4193912269        1.6714160672        9.0831145101
  H         6.6966629311        2.0045549627        7.3345559758
  H         6.1026552137        6.0561906210        8.6995864816
  S         4.8280312323        4.2373546702        6.8912499443
  C         9.1457201111        3.4002734942       11.0796802714
  H        10.1871804704        3.3414782331       10.7206948764
  H         9.0970921283        4.2625950996       11.7686781729
Au      8.32470   2.88380    45.4192882128 R0
Au      1.664900    0.000000    47.773891212799995 R0
Au      6.659800    0.000000    47.773891212799995 R0
Au      4.162300    1.441900    47.773891212799995 R0
Au      9.157200    1.441900    47.773891212799995 R0
Au      6.659800    2.883800    47.773891212799995 R0
Au      11.654600    2.883800    47.773891212799995 R0
Au      4.162300    4.325600    47.773891212799995 R0
Au      9.157200    4.325600    47.773891212799995 R0
Au      6.659800    5.767500    47.773891212799995 R0
Au      11.654600    5.767500    47.773891212799995 R0
Au      9.157200    7.209400    47.773891212799995 R0
Au      14.152000    7.209400    47.773891212799995 R0
Au      3.329900    0.000000    50.128493212799995 R0
Au      8.324700    0.000000    50.128493212799995 R0
Au      5.827300    1.441900    50.128493212799995 R0
Au      10.822100    1.441900    50.128493212799995 R0
Au      8.324700    2.883800    50.128493212799995 R0
Au      13.319500    2.883800    50.128493212799995 R0
Au      5.827300    4.325600    50.128493212799995 R0
Au      10.822100    4.325600    50.128493212799995 R0
Au      8.324700    5.767500    50.128493212799995 R0
Au      13.319500    5.767500    50.128493212799995 R0
Au      10.822100    7.209400    50.128493212799995 R0
Au      15.816900    7.209400    50.128493212799995 R0
Au      0.000000    0.000000    52.4828902128 R0
Au      4.994800    0.000000    52.483089212799996 R0
Au      2.497400    1.441900    52.483089212799996 R0
Au      7.492200    1.441900    52.483089212799996 R0
Au      4.994800    2.883800    52.483089212799996 R0
Au      9.989600    2.883800    52.483089212799996 R0
Au      2.497400    4.325600    52.483089212799996 R0
Au      7.492200    4.325600    52.483089212799996 R0
Au      4.994800    5.767500    52.483089212799996 R0
Au      9.989600    5.767500    52.483089212799996 R0
Au      7.492200    7.209400    52.483089212799996 R0
Au      12.487000    7.209400    52.483089212799996 R0
Au      1.664900    0.000000    54.8375922128 R1
Au      6.659800    0.000000    54.8375922128 R1
Au      4.162300    1.441900    54.8375922128 R1
Au      9.157200    1.441900    54.8375922128 R1
Au      6.659800    2.883800    54.8375922128 R1
Au      11.654600    2.883800    54.8375922128 R1
Au      4.162300    4.325600    54.8375922128 R1
Au      9.157200    4.325600    54.8375922128 R1
Au      6.659800    5.767500    54.8375922128 R1
Au      11.654600    5.767500    54.8375922128 R1
Au      9.157200    7.209400    54.8375922128 R1
Au      14.152000    7.209400    54.8375922128 R1
Au      3.329900    0.000000    57.1921912128 R1
Au      8.324700    0.000000    57.1921912128 R1
Au      5.827300    1.441900    57.1921912128 R1
Au      10.822100    1.441900    57.1921912128 R1
Au      8.324700    2.883800    57.1921912128 R1
Au      13.319500    2.883800    57.1921912128 R1
Au      5.827300    4.325600    57.1921912128 R1
Au      10.822100    4.325600    57.1921912128 R1
Au      8.324700    5.767500    57.1921912128 R1
Au      13.319500    5.767500    57.1921912128 R1
Au      10.822100    7.209400    57.1921912128 R1
Au      15.816900    7.209400    57.1921912128 R1
Au      0.000000    0.000000    59.5467862128 R1
Au      4.994800    0.000000    59.5467862128 R1
Au      2.497400    1.441900    59.5467862128 R1
Au      7.492200    1.441900    59.5467862128 R1
Au      4.994800    2.883800    59.5467862128 R1
Au      9.989600    2.883800    59.5467862128 R1
Au      2.497400    4.325600    59.5467862128 R1
Au      7.492200    4.325600    59.5467862128 R1
Au      4.994800    5.767500    59.5467862128 R1
Au      9.989600    5.767500    59.5467862128 R1
Au      7.492200    7.209400    59.5467862128 R1
Au      12.487000    7.209400    59.5467862128 R1
Au      1.664900    0.000000    61.9013910128 R2
Au      6.659800    0.000000    61.9013910128 R2
Au      4.162300    1.441900    61.9013910128 R2
Au      9.157200    1.441900    61.9013910128 R2
Au      6.659800    2.883800    61.9013910128 R2
Au      11.654600    2.883800    61.9013910128 R2
Au      4.162300    4.325600    61.9013910128 R2
Au      9.157200    4.325600    61.9013910128 R2
Au      6.659800    5.767500    61.9013910128 R2
Au      11.654600    5.767500    61.9013910128 R2
Au      9.157200    7.209400    61.9013910128 R2
Au      14.152000    7.209400    61.9013910128 R2
Au      3.329900    0.000000    64.2559905128 R2
Au      8.324700    0.000000    64.2559905128 R2
Au      5.827300    1.441900    64.2559905128 R2
Au      10.822100    1.441900    64.2559905128 R2
Au      8.324700    2.883800    64.2559905128 R2
Au      13.319500    2.883800    64.2559905128 R2
Au      5.827300    4.325600    64.2559905128 R2
Au      10.822100    4.325600    64.2559905128 R2
Au      8.324700    5.767500    64.2559905128 R2
Au      13.319500    5.767500    64.2559905128 R2
Au      10.822100    7.209400    64.2559905128 R2
Au      15.816900    7.209400    64.2559905128 R2
Au      0.000000    0.000000    66.6105975128 R2
Au      4.994800    0.000000    66.6105975128 R2
Au      2.497400    1.441900    66.6105975128 R2
Au      7.492200    1.441900    66.6105975128 R2
Au      4.994800    2.883800    66.6105975128 R2
Au      9.989600    2.883800    66.6105975128 R2
Au      2.497400    4.325600    66.6105975128 R2
Au      7.492200    4.325600    66.6105975128 R2
Au      4.994800    5.767500    66.6105975128 R2
Au      9.989600    5.767500    66.6105975128 R2
Au      7.492200    7.209400    66.6105975128 R2
Au      12.487000    7.209400    66.6105975128 R2
Au      1.664900    0.000000    68.96519101279999 R3
Au      6.659800    0.000000    68.96519101279999 R3
Au      4.162300    1.441900    68.96519101279999 R3
Au      9.157200    1.441900    68.96519101279999 R3
Au      6.659800    2.883800    68.96519101279999 R3
Au      11.654600    2.883800    68.96519101279999 R3
Au      4.162300    4.325600    68.96519101279999 R3
Au      9.157200    4.325600    68.96519101279999 R3
Au      6.659800    5.767500    68.96519101279999 R3
Au      11.654600    5.767500    68.96519101279999 R3
Au      9.157200    7.209400    68.96519101279999 R3
Au      14.152000    7.209400    68.96519101279999 R3
Au      3.329900    0.000000    71.3197905128 R3
Au      8.324700    0.000000    71.3197905128 R3
Au      5.827300    1.441900    71.3197905128 R3
Au      10.822100    1.441900    71.3197905128 R3
Au      8.324700    2.883800    71.3197905128 R3
Au      13.319500    2.883800    71.3197905128 R3
Au      5.827300    4.325600    71.3197905128 R3
Au      10.822100    4.325600    71.3197905128 R3
Au      8.324700    5.767500    71.3197905128 R3
Au      13.319500    5.767500    71.3197905128 R3
Au      10.822100    7.209400    71.3197905128 R3
Au      15.816900    7.209400    71.3197905128 R3
Au      0.000000    0.000000    73.6743975128 R3
Au      4.994800    0.000000    73.6743975128 R3
Au      2.497400    1.441900    73.6743975128 R3
Au      7.492200    1.441900    73.6743975128 R3
Au      4.994800    2.883800    73.6743975128 R3
Au      9.989600    2.883800    73.6743975128 R3
Au      2.497400    4.325600    73.6743975128 R3
Au      7.492200    4.325600    73.6743975128 R3
Au      4.994800    5.767500    73.6743975128 R3
Au      9.989600    5.767500    73.6743975128 R3
Au      7.492200    7.209400    73.6743975128 R3
Au      12.487000    7.209400    73.6743975128 R3