     117
 i =      195, E =     -1614.5846488029
 Au         1.6649000000        0.0000000000        0.0000000000
 Au         6.6598000000        0.0000000000        0.0000000000
 Au         4.1623000000        1.4419000000        0.0000000000
 Au         9.1572000000        1.4419000000        0.0000000000
 Au         6.6598000000        2.8838000000        0.0000000000
 Au        11.6546000000        2.8838000000        0.0000000000
 Au         4.1623000000        4.3256000000        0.0000000000
 Au         9.1572000000        4.3256000000        0.0000000000
 Au         6.6598000000        5.7675000000        0.0000000000
 Au        11.6546000000        5.7675000000        0.0000000000
 Au         9.1572000000        7.2094000000        0.0000000000
 Au        14.1520000000        7.2094000000        0.0000000000
 Au         3.3299000000        0.0000000000        2.3546000000
 Au         8.3247000000        0.0000000000        2.3546000000
 Au         5.8273000000        1.4419000000        2.3546000000
 Au        10.8221000000        1.4419000000        2.3546000000
 Au         8.3247000000        2.8838000000        2.3546000000
 Au        13.3195000000        2.8838000000        2.3546000000
 Au         5.8273000000        4.3256000000        2.3546000000
 Au        10.8221000000        4.3256000000        2.3546000000
 Au         8.3247000000        5.7675000000        2.3546000000
 Au        13.3195000000        5.7675000000        2.3546000000
 Au        10.8221000000        7.2094000000        2.3546000000
 Au        15.8169000000        7.2094000000        2.3546000000
 Au         0.0000000000        0.0000000000        4.7091000000
 Au         4.9948000000        0.0000000000        4.7091000000
 Au         2.4974000000        1.4419000000        4.7091000000
 Au         7.4922000000        1.4419000000        4.7091000000
 Au         4.9948000000        2.8838000000        4.7091000000
 Au         9.9896000000        2.8838000000        4.7091000000
 Au         2.4974000000        4.3256000000        4.7091000000
 Au         7.4922000000        4.3256000000        4.7091000000
 Au         4.9948000000        5.7675000000        4.7091000000
 Au         9.9896000000        5.7675000000        4.7091000000
 Au         7.4922000000        7.2094000000        4.7091000000
 Au        12.4870000000        7.2094000000        4.7091000000
  C        11.9175381858        1.6039002084       18.1771484583
  C        11.8260555135        0.3520537358       17.4554971685
  C        11.6724521134        0.6440033208       16.0455437881
  C        11.6670594758        2.1099744001       15.8954748809
  C        11.8194326503        2.6830038124       17.2158170513
  C        11.1458886277        3.8583883072       17.5646638755
  C        10.2730145685        4.4766362695       16.6003689621
  C        10.1203169849        3.8970093878       15.3338296131
  C        10.8515726710        2.7186508908       14.9608242981
  C        10.1082969922        1.9660777165       13.8570640358
  C        10.1146301918        0.3617804738       14.0194019389
  C        10.8605804838       -0.1459492117       15.2545361323
  C        10.1347068175       -1.2262334681       15.8610026498
  C        10.2887297239       -1.5351926614       17.2192672962
  C        11.1587415103       -0.7308145799       18.0374176327
  C        10.5559399684       -0.6023996070       19.3487468488
  C         9.3030329903       -1.3380688873       19.3378680865
  C         9.1399009733       -1.9158227280       18.0176738010
  C         7.8785892093       -1.9807228583       17.4276657576
  C         7.7147835699       -1.6747438297       16.0166682019
  C         8.8235779632       -1.2935418334       15.2483495032
  C         8.7308776698       -0.2493942653       14.2642744297
  C         7.5391829411        0.4329916939       14.1175031333
  C         7.5340687079        1.9016450816       13.9666399695
  C         8.7215658665        2.6061797065       13.9730852066
  C         8.8085415325        3.8307953161       14.7208389479
  C         7.6960741955        4.3545570920       15.3959364100
  C         7.8593377677        4.9373765501       16.7153980295
  C         9.1209059275        5.0025322053       17.3054102052
  C         9.2851328587        4.7017993945       18.7161886301
  C         8.1756242575        4.3415290795       19.4872602864
  C         6.8618799587        4.2713792512       18.8731129938
  C         6.7100525352        4.5617388549       17.5136521648
  C         5.8399550634        3.7496258487       16.6836621387
  C         6.4516406354        3.6257406529       15.3758849461
  C         6.3801816569        2.4108901534       14.6782541092
  C         5.6765364696        1.2874280554       15.2670050811
  C         6.3886089522        0.0724180929       14.9194144491
  C         6.4680339663       -0.9729421903       15.8502098901
  C         5.8537232842       -0.8362873600       17.1563709326
  C         6.7262133919       -1.4598084021       18.1339918518
  C         6.8758556213       -0.8992526281       19.4062331738
  C         8.1903147085       -0.8357587939       20.0215740941
  C         8.2873997170        0.4205385015       20.7420954189
  C         7.0312913564        1.1312192257       20.5753259410
  C         6.1595848483        0.3142298522       19.7498221061
  C         5.3218171323        0.9181574389       18.8053038019
  C         5.1682897008        0.3341586851       17.4887896543
  C         5.0758166287        1.4139077438       16.5236028363
  C         5.1615830755        2.6673263729       17.2484926351
  C         5.3171310237        2.3631466899       18.6567287522
  C         6.1525494687        3.1498699757       19.4568014359
  C         7.0275540529        2.5231178966       20.4318655003
  C         8.2790467714        3.2599075262       20.4496772802
  C         9.4910946540        2.5765684469       20.6043968479
  C         9.4955035256        1.1285630443       20.7535108008
  C        10.6474686214        0.6088334933       20.0442859580
  C        11.3498685252        1.7319155433       19.4481642672
  C        10.6397389158        2.9484123066       19.8030561459
  C        10.5404822636        3.9912640410       18.8754945563
  C        10.7495573632       -0.1128886862       12.6780404546
  C        10.7377691343        2.1699767884       12.4502093797
  N        10.4016665864        0.9435821725       11.7358958480
  H        10.3558533119       -1.0863294938       12.3540557264
  H        11.8495049517       -0.2106678358       12.8124049589
  H        11.8382669897        2.2966944879       12.5575549127
  H        10.3390758228        3.0570124681       11.9410909834
  C        10.4920659991        1.8451468526        9.4536615167
  C        11.3118437613        2.8361299406        8.9012048778
  C        10.7878856110        3.8198310500        8.0604148896
  C         9.4166415560        3.8219207071        7.7545516791
  C         9.1280038253        1.8394385089        9.1204218869
  C         8.5915247717        2.8074843171        8.2775117752
  H        12.3771584317        2.8502346042        9.1397362115
  H         8.4783683462        1.0724715079        9.5446779352
  H         7.5305364551        2.7945187375        8.0276832127
  H        11.4337240757        4.5994431205        7.6556547066
  S         8.6741599114        5.1874083275        6.8923017727
  C        11.0366056492        0.8195893320       10.4214932521
  H        12.1425561381        0.9159296263       10.4888418800
  H        10.8259848939       -0.1953566875       10.0469968447
Au      5.82730   1.44190    45.4192882128 R0
Au      1.664900    0.000000    47.773891212799995 R0
Au      6.659800    0.000000    47.773891212799995 R0
Au      4.162300    1.441900    47.773891212799995 R0
Au      9.157200    1.441900    47.773891212799995 R0
Au      6.659800    2.883800    47.773891212799995 R0
Au      11.654600    2.883800    47.773891212799995 R0
Au      4.162300    4.325600    47.773891212799995 R0
Au      9.157200    4.325600    47.773891212799995 R0
Au      6.659800    5.767500    47.773891212799995 R0
Au      11.654600    5.767500    47.773891212799995 R0
Au      9.157200    7.209400    47.773891212799995 R0
Au      14.152000    7.209400    47.773891212799995 R0
Au      3.329900    0.000000    50.128493212799995 R0
Au      8.324700    0.000000    50.128493212799995 R0
Au      5.827300    1.441900    50.128493212799995 R0
Au      10.822100    1.441900    50.128493212799995 R0
Au      8.324700    2.883800    50.128493212799995 R0
Au      13.319500    2.883800    50.128493212799995 R0
Au      5.827300    4.325600    50.128493212799995 R0
Au      10.822100    4.325600    50.128493212799995 R0
Au      8.324700    5.767500    50.128493212799995 R0
Au      13.319500    5.767500    50.128493212799995 R0
Au      10.822100    7.209400    50.128493212799995 R0
Au      15.816900    7.209400    50.128493212799995 R0
Au      0.000000    0.000000    52.4828902128 R0
Au      4.994800    0.000000    52.483089212799996 R0
Au      2.497400    1.441900    52.483089212799996 R0
Au      7.492200    1.441900    52.483089212799996 R0
Au      4.994800    2.883800    52.483089212799996 R0
Au      9.989600    2.883800    52.483089212799996 R0
Au      2.497400    4.325600    52.483089212799996 R0
Au      7.492200    4.325600    52.483089212799996 R0
Au      4.994800    5.767500    52.483089212799996 R0
Au      9.989600    5.767500    52.483089212799996 R0
Au      7.492200    7.209400    52.483089212799996 R0
Au      12.487000    7.209400    52.483089212799996 R0
Au      1.664900    0.000000    54.8375922128 R1
Au      6.659800    0.000000    54.8375922128 R1
Au      4.162300    1.441900    54.8375922128 R1
Au      9.157200    1.441900    54.8375922128 R1
Au      6.659800    2.883800    54.8375922128 R1
Au      11.654600    2.883800    54.8375922128 R1
Au      4.162300    4.325600    54.8375922128 R1
Au      9.157200    4.325600    54.8375922128 R1
Au      6.659800    5.767500    54.8375922128 R1
Au      11.654600    5.767500    54.8375922128 R1
Au      9.157200    7.209400    54.8375922128 R1
Au      14.152000    7.209400    54.8375922128 R1
Au      3.329900    0.000000    57.1921912128 R1
Au      8.324700    0.000000    57.1921912128 R1
Au      5.827300    1.441900    57.1921912128 R1
Au      10.822100    1.441900    57.1921912128 R1
Au      8.324700    2.883800    57.1921912128 R1
Au      13.319500    2.883800    57.1921912128 R1
Au      5.827300    4.325600    57.1921912128 R1
Au      10.822100    4.325600    57.1921912128 R1
Au      8.324700    5.767500    57.1921912128 R1
Au      13.319500    5.767500    57.1921912128 R1
Au      10.822100    7.209400    57.1921912128 R1
Au      15.816900    7.209400    57.1921912128 R1
Au      0.000000    0.000000    59.5467862128 R1
Au      4.994800    0.000000    59.5467862128 R1
Au      2.497400    1.441900    59.5467862128 R1
Au      7.492200    1.441900    59.5467862128 R1
Au      4.994800    2.883800    59.5467862128 R1
Au      9.989600    2.883800    59.5467862128 R1
Au      2.497400    4.325600    59.5467862128 R1
Au      7.492200    4.325600    59.5467862128 R1
Au      4.994800    5.767500    59.5467862128 R1
Au      9.989600    5.767500    59.5467862128 R1
Au      7.492200    7.209400    59.5467862128 R1
Au      12.487000    7.209400    59.5467862128 R1
Au      1.664900    0.000000    61.9013910128 R2
Au      6.659800    0.000000    61.9013910128 R2
Au      4.162300    1.441900    61.9013910128 R2
Au      9.157200    1.441900    61.9013910128 R2
Au      6.659800    2.883800    61.9013910128 R2
Au      11.654600    2.883800    61.9013910128 R2
Au      4.162300    4.325600    61.9013910128 R2
Au      9.157200    4.325600    61.9013910128 R2
Au      6.659800    5.767500    61.9013910128 R2
Au      11.654600    5.767500    61.9013910128 R2
Au      9.157200    7.209400    61.9013910128 R2
Au      14.152000    7.209400    61.9013910128 R2
Au      3.329900    0.000000    64.2559905128 R2
Au      8.324700    0.000000    64.2559905128 R2
Au      5.827300    1.441900    64.2559905128 R2
Au      10.822100    1.441900    64.2559905128 R2
Au      8.324700    2.883800    64.2559905128 R2
Au      13.319500    2.883800    64.2559905128 R2
Au      5.827300    4.325600    64.2559905128 R2
Au      10.822100    4.325600    64.2559905128 R2
Au      8.324700    5.767500    64.2559905128 R2
Au      13.319500    5.767500    64.2559905128 R2
Au      10.822100    7.209400    64.2559905128 R2
Au      15.816900    7.209400    64.2559905128 R2
Au      0.000000    0.000000    66.6105975128 R2
Au      4.994800    0.000000    66.6105975128 R2
Au      2.497400    1.441900    66.6105975128 R2
Au      7.492200    1.441900    66.6105975128 R2
Au      4.994800    2.883800    66.6105975128 R2
Au      9.989600    2.883800    66.6105975128 R2
Au      2.497400    4.325600    66.6105975128 R2
Au      7.492200    4.325600    66.6105975128 R2
Au      4.994800    5.767500    66.6105975128 R2
Au      9.989600    5.767500    66.6105975128 R2
Au      7.492200    7.209400    66.6105975128 R2
Au      12.487000    7.209400    66.6105975128 R2
Au      1.664900    0.000000    68.96519101279999 R3
Au      6.659800    0.000000    68.96519101279999 R3
Au      4.162300    1.441900    68.96519101279999 R3
Au      9.157200    1.441900    68.96519101279999 R3
Au      6.659800    2.883800    68.96519101279999 R3
Au      11.654600    2.883800    68.96519101279999 R3
Au      4.162300    4.325600    68.96519101279999 R3
Au      9.157200    4.325600    68.96519101279999 R3
Au      6.659800    5.767500    68.96519101279999 R3
Au      11.654600    5.767500    68.96519101279999 R3
Au      9.157200    7.209400    68.96519101279999 R3
Au      14.152000    7.209400    68.96519101279999 R3
Au      3.329900    0.000000    71.3197905128 R3
Au      8.324700    0.000000    71.3197905128 R3
Au      5.827300    1.441900    71.3197905128 R3
Au      10.822100    1.441900    71.3197905128 R3
Au      8.324700    2.883800    71.3197905128 R3
Au      13.319500    2.883800    71.3197905128 R3
Au      5.827300    4.325600    71.3197905128 R3
Au      10.822100    4.325600    71.3197905128 R3
Au      8.324700    5.767500    71.3197905128 R3
Au      13.319500    5.767500    71.3197905128 R3
Au      10.822100    7.209400    71.3197905128 R3
Au      15.816900    7.209400    71.3197905128 R3
Au      0.000000    0.000000    73.6743975128 R3
Au      4.994800    0.000000    73.6743975128 R3
Au      2.497400    1.441900    73.6743975128 R3
Au      7.492200    1.441900    73.6743975128 R3
Au      4.994800    2.883800    73.6743975128 R3
Au      9.989600    2.883800    73.6743975128 R3
Au      2.497400    4.325600    73.6743975128 R3
Au      7.492200    4.325600    73.6743975128 R3
Au      4.994800    5.767500    73.6743975128 R3
Au      9.989600    5.767500    73.6743975128 R3
Au      7.492200    7.209400    73.6743975128 R3
Au      12.487000    7.209400    73.6743975128 R3