    117
 i =      121, E =     -1614.5515430154
 Au         1.6649000000        0.0000000000        0.0000000000
 Au         6.6598000000        0.0000000000        0.0000000000
 Au         4.1623000000        1.4419000000        0.0000000000
 Au         9.1572000000        1.4419000000        0.0000000000
 Au         6.6598000000        2.8838000000        0.0000000000
 Au        11.6546000000        2.8838000000        0.0000000000
 Au         4.1623000000        4.3256000000        0.0000000000
 Au         9.1572000000        4.3256000000        0.0000000000
 Au         6.6598000000        5.7675000000        0.0000000000
 Au        11.6546000000        5.7675000000        0.0000000000
 Au         9.1572000000        7.2094000000        0.0000000000
 Au        14.1520000000        7.2094000000        0.0000000000
 Au         3.3299000000        0.0000000000        2.3546000000
 Au         8.3247000000        0.0000000000        2.3546000000
 Au         5.8273000000        1.4419000000        2.3546000000
 Au        10.8221000000        1.4419000000        2.3546000000
 Au         8.3247000000        2.8838000000        2.3546000000
 Au        13.3195000000        2.8838000000        2.3546000000
 Au         5.8273000000        4.3256000000        2.3546000000
 Au        10.8221000000        4.3256000000        2.3546000000
 Au         8.3247000000        5.7675000000        2.3546000000
 Au        13.3195000000        5.7675000000        2.3546000000
 Au        10.8221000000        7.2094000000        2.3546000000
 Au        15.8169000000        7.2094000000        2.3546000000
 Au         0.0000000000        0.0000000000        4.7091000000
 Au         4.9948000000        0.0000000000        4.7091000000
 Au         2.4974000000        1.4419000000        4.7091000000
 Au         7.4922000000        1.4419000000        4.7091000000
 Au         4.9948000000        2.8838000000        4.7091000000
 Au         9.9896000000        2.8838000000        4.7091000000
 Au         2.4974000000        4.3256000000        4.7091000000
 Au         7.4922000000        4.3256000000        4.7091000000
 Au         4.9948000000        5.7675000000        4.7091000000
 Au         9.9896000000        5.7675000000        4.7091000000
 Au         7.4922000000        7.2094000000        4.7091000000
 Au        12.4870000000        7.2094000000        4.7091000000
  H        11.0552087392        3.8986052281       10.9892455933
  C        10.4946974829        4.4226360362       10.2125944500
  C        10.1956760088        5.7822083663       10.3735291691
  C         9.4764640680        6.4334306182        9.3576784486
  H         9.2407949127        7.4933627491        9.4636655193
  C         9.0226522053        5.7369950553        8.2390117611
  H         8.4321860979        6.2475528086        7.4769271071
  C         9.2973685315        4.3653532878        8.1059058186
  C        10.0674617233        3.7191673803        9.0888428927
  H        10.2956190201        2.6583284654        8.9852168166
  C        10.6318918153        6.5064199451       11.6253318694
  N         9.5481980819        7.3073155342       12.2313489548
  H        11.4412569774        7.2151484356       11.3838942035
  H        11.0569588666        5.7718766352       12.3343262891
  C         9.9271070905        8.0150466427       13.4388843199
  C         8.3218315221        6.6034504082       12.5586344906
  C         7.3989182885        7.0374008771       20.3534338752
  C         7.1815133437        5.7257220101       20.9309832832
  C         8.4698243486        5.1852497566       21.3194782282
  C         9.4913467122        6.1656599667       20.9850801075
  C         8.8274739050        7.3084649214       20.3817386021
  C         9.4310142402        7.9795821200       19.3143175265
  C        10.7199715172        7.5487362336       18.8128701263
  C        11.3647459530        6.4551174202       19.3993131047
  C        10.7335747240        5.7467743678       20.5003832844
  C        11.0066097150        4.3291829836       20.3297010973
  C        10.0252078186        3.3864405941       20.6488791401
  C         8.7329165051        3.8201941097       21.1549449966
  C         7.7169102569        2.9470522445       20.6001555234
  C         6.4712491577        3.4662097708       20.2285367537
  C         6.1978125057        4.8793405315       20.3933214594
  C         5.4031890233        5.3183785375       19.2622963819
  C         5.1887303759        4.1750255026       18.3919351596
  C         5.8438933081        3.0279391655       18.9916970237
  C         6.4819068169        2.0948416700       18.1756637506
  C         7.7706541267        1.5527348154       18.5623984664
  C         8.3772811332        1.9720425252       19.7489275766
  C         9.8023263029        2.2468590264       19.7768805285
  C        10.5600311290        2.1008478885       18.6124457830
  C        11.5771659057        3.0779094279       18.2774891358
  C        11.8002935835        4.1714412904       19.1230967674
  C        12.0201299757        5.4825296254       18.5499268039
  C        12.0112885771        5.6481717319       17.1592914387
  C        11.3477092879        6.7849108805       16.5535561521
  C        10.7210106962        7.7143675243       17.3718197094
  C         9.4152620421        8.2391444712       16.9750684129
  C         8.8268379851        7.8382782114       15.7866286780
  C         9.5706942330        7.0808949564       14.6858446053
  C        10.7386792248        6.3633712199       15.2977308664
  C        10.9712064901        4.9900825607       15.1583414250
  C        11.7759781879        4.5200978958       16.2930211146
  C        11.5670488754        3.2602107736       16.8413515295
  C        10.5405773496        2.3815120186       16.2825870999
  C         9.9266862724        1.6679533287       17.3807521319
  C         8.5581852642        1.3862900367       17.3555452612
  C         7.7597256956        1.8147949131       16.2249233790
  C         6.4757676462        2.2518957220       16.7311502353
  C         5.8443876672        3.3583579115       16.1520458342
  C         5.1957835105        4.3365183308       17.0033876749
  C         5.4275720067        5.6486390585       16.4305363292
  C         6.2145658580        5.4941331170       15.2269996212
  C         6.4675918820        4.0618162001       15.0470221332
  C         7.7096465352        3.6551320305       14.5674873944
  C         8.3613884960        2.5027147545       15.1628394762
  C         9.7749906077        2.7939959678       15.1974944367
  C         9.9676973618        4.1254961680       14.6100708525
  C         8.7276166303        4.6326429379       14.2054154070
  C         8.4293550515        6.0960159107       14.0646176107
  C         7.1834349603        6.4269531964       14.8890827747
  C         7.4275403790        7.5313601621       15.7691637734
  C         6.6441650874        7.7072006951       16.9323152859
  C         5.6214464809        6.7507629658       17.2676641308
  C         5.6098379057        6.5847415650       18.7087310260
  C         6.6293082085        7.4572829452       19.2638537813
  C         7.2595533496        8.1492288687       18.1583525593
  C         8.6317881579        8.3985924366       18.1777353677
  H         8.1267107186        5.7839272392       11.8583929080
  H         7.4761238959        7.3069175631       12.5085503492
  S         8.5542037687        3.3203904786        6.8791242400
  H         9.3248950223        8.9317963955       13.5361096237
  H        10.9861343261        8.2997233951       13.4270252702
Au      8.324700    5.767500    45.4192882128 R0
Au      1.664900    0.000000    47.773891212799995 R0
Au      6.659800    0.000000    47.773891212799995 R0
Au      4.162300    1.441900    47.773891212799995 R0
Au      9.157200    1.441900    47.773891212799995 R0
Au      6.659800    2.883800    47.773891212799995 R0
Au      11.654600    2.883800    47.773891212799995 R0
Au      4.162300    4.325600    47.773891212799995 R0
Au      9.157200    4.325600    47.773891212799995 R0
Au      6.659800    5.767500    47.773891212799995 R0
Au      11.654600    5.767500    47.773891212799995 R0
Au      9.157200    7.209400    47.773891212799995 R0
Au      14.152000    7.209400    47.773891212799995 R0
Au      3.329900    0.000000    50.128493212799995 R0
Au      8.324700    0.000000    50.128493212799995 R0
Au      5.827300    1.441900    50.128493212799995 R0
Au      10.822100    1.441900    50.128493212799995 R0
Au      8.324700    2.883800    50.128493212799995 R0
Au      13.319500    2.883800    50.128493212799995 R0
Au      5.827300    4.325600    50.128493212799995 R0
Au      10.822100    4.325600    50.128493212799995 R0
Au      8.324700    5.767500    50.128493212799995 R0
Au      13.319500    5.767500    50.128493212799995 R0
Au      10.822100    7.209400    50.128493212799995 R0
Au      15.816900    7.209400    50.128493212799995 R0
Au      0.000000    0.000000    52.4828902128 R0
Au      4.994800    0.000000    52.483089212799996 R0
Au      2.497400    1.441900    52.483089212799996 R0
Au      7.492200    1.441900    52.483089212799996 R0
Au      4.994800    2.883800    52.483089212799996 R0
Au      9.989600    2.883800    52.483089212799996 R0
Au      2.497400    4.325600    52.483089212799996 R0
Au      7.492200    4.325600    52.483089212799996 R0
Au      4.994800    5.767500    52.483089212799996 R0
Au      9.989600    5.767500    52.483089212799996 R0
Au      7.492200    7.209400    52.483089212799996 R0
Au      12.487000    7.209400    52.483089212799996 R0
Au      1.664900    0.000000    54.8375922128 R1
Au      6.659800    0.000000    54.8375922128 R1
Au      4.162300    1.441900    54.8375922128 R1
Au      9.157200    1.441900    54.8375922128 R1
Au      6.659800    2.883800    54.8375922128 R1
Au      11.654600    2.883800    54.8375922128 R1
Au      4.162300    4.325600    54.8375922128 R1
Au      9.157200    4.325600    54.8375922128 R1
Au      6.659800    5.767500    54.8375922128 R1
Au      11.654600    5.767500    54.8375922128 R1
Au      9.157200    7.209400    54.8375922128 R1
Au      14.152000    7.209400    54.8375922128 R1
Au      3.329900    0.000000    57.1921912128 R1
Au      8.324700    0.000000    57.1921912128 R1
Au      5.827300    1.441900    57.1921912128 R1
Au      10.822100    1.441900    57.1921912128 R1
Au      8.324700    2.883800    57.1921912128 R1
Au      13.319500    2.883800    57.1921912128 R1
Au      5.827300    4.325600    57.1921912128 R1
Au      10.822100    4.325600    57.1921912128 R1
Au      8.324700    5.767500    57.1921912128 R1
Au      13.319500    5.767500    57.1921912128 R1
Au      10.822100    7.209400    57.1921912128 R1
Au      15.816900    7.209400    57.1921912128 R1
Au      0.000000    0.000000    59.5467862128 R1
Au      4.994800    0.000000    59.5467862128 R1
Au      2.497400    1.441900    59.5467862128 R1
Au      7.492200    1.441900    59.5467862128 R1
Au      4.994800    2.883800    59.5467862128 R1
Au      9.989600    2.883800    59.5467862128 R1
Au      2.497400    4.325600    59.5467862128 R1
Au      7.492200    4.325600    59.5467862128 R1
Au      4.994800    5.767500    59.5467862128 R1
Au      9.989600    5.767500    59.5467862128 R1
Au      7.492200    7.209400    59.5467862128 R1
Au      12.487000    7.209400    59.5467862128 R1
Au      1.664900    0.000000    61.9013910128 R2
Au      6.659800    0.000000    61.9013910128 R2
Au      4.162300    1.441900    61.9013910128 R2
Au      9.157200    1.441900    61.9013910128 R2
Au      6.659800    2.883800    61.9013910128 R2
Au      11.654600    2.883800    61.9013910128 R2
Au      4.162300    4.325600    61.9013910128 R2
Au      9.157200    4.325600    61.9013910128 R2
Au      6.659800    5.767500    61.9013910128 R2
Au      11.654600    5.767500    61.9013910128 R2
Au      9.157200    7.209400    61.9013910128 R2
Au      14.152000    7.209400    61.9013910128 R2
Au      3.329900    0.000000    64.2559905128 R2
Au      8.324700    0.000000    64.2559905128 R2
Au      5.827300    1.441900    64.2559905128 R2
Au      10.822100    1.441900    64.2559905128 R2
Au      8.324700    2.883800    64.2559905128 R2
Au      13.319500    2.883800    64.2559905128 R2
Au      5.827300    4.325600    64.2559905128 R2
Au      10.822100    4.325600    64.2559905128 R2
Au      8.324700    5.767500    64.2559905128 R2
Au      13.319500    5.767500    64.2559905128 R2
Au      10.822100    7.209400    64.2559905128 R2
Au      15.816900    7.209400    64.2559905128 R2
Au      0.000000    0.000000    66.6105975128 R2
Au      4.994800    0.000000    66.6105975128 R2
Au      2.497400    1.441900    66.6105975128 R2
Au      7.492200    1.441900    66.6105975128 R2
Au      4.994800    2.883800    66.6105975128 R2
Au      9.989600    2.883800    66.6105975128 R2
Au      2.497400    4.325600    66.6105975128 R2
Au      7.492200    4.325600    66.6105975128 R2
Au      4.994800    5.767500    66.6105975128 R2
Au      9.989600    5.767500    66.6105975128 R2
Au      7.492200    7.209400    66.6105975128 R2
Au      12.487000    7.209400    66.6105975128 R2
Au      1.664900    0.000000    68.96519101279999 R3
Au      6.659800    0.000000    68.96519101279999 R3
Au      4.162300    1.441900    68.96519101279999 R3
Au      9.157200    1.441900    68.96519101279999 R3
Au      6.659800    2.883800    68.96519101279999 R3
Au      11.654600    2.883800    68.96519101279999 R3
Au      4.162300    4.325600    68.96519101279999 R3
Au      9.157200    4.325600    68.96519101279999 R3
Au      6.659800    5.767500    68.96519101279999 R3
Au      11.654600    5.767500    68.96519101279999 R3
Au      9.157200    7.209400    68.96519101279999 R3
Au      14.152000    7.209400    68.96519101279999 R3
Au      3.329900    0.000000    71.3197905128 R3
Au      8.324700    0.000000    71.3197905128 R3
Au      5.827300    1.441900    71.3197905128 R3
Au      10.822100    1.441900    71.3197905128 R3
Au      8.324700    2.883800    71.3197905128 R3
Au      13.319500    2.883800    71.3197905128 R3
Au      5.827300    4.325600    71.3197905128 R3
Au      10.822100    4.325600    71.3197905128 R3
Au      8.324700    5.767500    71.3197905128 R3
Au      13.319500    5.767500    71.3197905128 R3
Au      10.822100    7.209400    71.3197905128 R3
Au      15.816900    7.209400    71.3197905128 R3
Au      0.000000    0.000000    73.6743975128 R3
Au      4.994800    0.000000    73.6743975128 R3
Au      2.497400    1.441900    73.6743975128 R3
Au      7.492200    1.441900    73.6743975128 R3
Au      4.994800    2.883800    73.6743975128 R3
Au      9.989600    2.883800    73.6743975128 R3
Au      2.497400    4.325600    73.6743975128 R3
Au      7.492200    4.325600    73.6743975128 R3
Au      4.994800    5.767500    73.6743975128 R3
Au      9.989600    5.767500    73.6743975128 R3
Au      7.492200    7.209400    73.6743975128 R3
Au      12.487000    7.209400    73.6743975128 R3