 420
 i =       82, E =     -3365.3998523447
Au     0.000000     0.000000     0.000000     L3
Au     8.760000     0.000000     0.000000     L3
Au     4.380000     7.586382     0.000000     L3
Au     13.140000     7.586382     0.000000     L3
Au     2.920000     0.000000     0.000000     L3
Au     11.680000     0.000000     0.000000     L3
Au     7.300000     7.586382     0.000000     L3
Au     16.059999     7.586382     0.000000     L3
Au     5.840000     0.000000     0.000000     L3
Au     10.220000     7.586382     0.000000     L3
Au     1.460000     2.528794     0.000000     L3
Au     10.220000     2.528794     0.000000     L3
Au     5.840000     10.115176     0.000000     L3
Au     14.600000     10.115176     0.000000     L3
Au     4.380000     2.528794     0.000000     L3
Au     13.140000     2.528794     0.000000     L3
Au     8.760000     10.115176     0.000000     L3
Au     17.520000     10.115176     0.000000     L3
Au     7.300000     2.528794     0.000000     L3
Au     11.680000     10.115176     0.000000     L3
Au     2.920000     5.057588     0.000000     L3
Au     11.680000     5.057588     0.000000     L3
Au     5.840000     5.057588     0.000000     L3
Au     14.600000     5.057588     0.000000     L3
Au     8.760000     5.057588     0.000000     L3
Au     1.460000     0.842931     2.384170     L3
Au     10.220000     0.842931     2.384170     L3
Au     5.840000     8.429314     2.384170     L3
Au     14.600000     8.429314     2.384170     L3
Au     4.380000     0.842931     2.384170     L3
Au     13.140000     0.842931     2.384170     L3
Au     8.760000     8.429314     2.384170     L3
Au     17.520000     8.429314     2.384170     L3
Au     7.300000     0.842931     2.384170     L3
Au     11.680000     8.429314     2.384170     L3
Au     2.920000     3.371726     2.384170     L3
Au     11.680000     3.371726     2.384170     L3
Au     7.300000     10.958108     2.384170     L3
Au     16.059999     10.958108     2.384170     L3
Au     5.840000     3.371726     2.384170     L3
Au     14.600000     3.371726     2.384170     L3
Au     10.220000     10.958108     2.384170     L3
Au     18.980000     10.958108     2.384170     L3
Au     8.760000     3.371726     2.384170     L3
Au     13.140000     10.958108     2.384170     L3
Au     4.380000     5.900520     2.384170     L3
Au     13.140000     5.900520     2.384170     L3
Au     7.300000     5.900520     2.384170     L3
Au     16.059999     5.900520     2.384170     L3
Au     10.220000     5.900520     2.384170     L3
Au     8.760000     1.685863     4.768340     L3
Au     13.140000     9.272245     4.768340     L3
Au     2.920000     1.685863     4.768340     L3
Au     11.680000     1.685863     4.768340     L3
Au     7.300000     9.272245     4.768340     L3
Au     16.059999     9.272245     4.768340     L3
Au     5.840000     1.685863     4.768340     L3
Au     14.600000     1.685863     4.768340     L3
Au     10.220000     9.272245     4.768340     L3
Au     18.980000     9.272245     4.768340     L3
Au     10.220000     4.214657     4.768340     L3
Au     14.600000     11.801040     4.768340     L3
Au     4.380000     4.214657     4.768340     L3
Au     13.140000     4.214657     4.768340     L3
Au     8.760000     11.801040     4.768340     L3
Au     17.520000     11.801040     4.768340     L3
Au     7.300000     4.214657     4.768340     L3
Au     16.059999     4.214657     4.768340     L3
Au     11.680000     11.801040     4.768340     L3
Au     20.440001     11.801040     4.768340     L3
Au     11.680000     6.743451     4.768340     L3
Au     5.840000     6.743451     4.768340     L3
Au     14.600000     6.743451     4.768340     L3
Au     8.760000     6.743451     4.768340     L3
Au     17.520000     6.743451     4.768340     L3
Au     0.000000     0.000000     7.152510     L2
Au     8.760000     0.000000     7.152510     L2
Au     4.380000     7.586382     7.152510     L2
Au     13.140000     7.586382     7.152510     L2
Au     2.920000     0.000000     7.152510     L2
Au     11.680000     0.000000     7.152510     L2
Au     7.300000     7.586382     7.152510     L2
Au     16.059999     7.586382     7.152510     L2
Au     5.840000     0.000000     7.152510     L2
Au     10.220000     7.586382     7.152510     L2
Au     1.460000     2.528794     7.152510     L2
Au     10.220000     2.528794     7.152510     L2
Au     5.840000     10.115176     7.152510     L2
Au     14.600000     10.115176     7.152510     L2
Au     4.380000     2.528794     7.152510     L2
Au     13.140000     2.528794     7.152510     L2
Au     8.760000     10.115176     7.152510     L2
Au     17.520000     10.115176     7.152510     L2
Au     7.300000     2.528794     7.152510     L2
Au     11.680000     10.115176     7.152510     L2
Au     2.920000     5.057588     7.152510     L2
Au     11.680000     5.057588     7.152510     L2
Au     5.840000     5.057588     7.152510     L2
Au     14.600000     5.057588     7.152510     L2
Au     8.760000     5.057588     7.152510     L2
Au     1.460000     0.842931     9.536680     L2
Au     10.220000     0.842931     9.536680     L2
Au     5.840000     8.429314     9.536680     L2
Au     14.600000     8.429314     9.536680     L2
Au     4.380000     0.842931     9.536680     L2
Au     13.140000     0.842931     9.536680     L2
Au     8.760000     8.429314     9.536680     L2
Au     17.520000     8.429314     9.536680     L2
Au     7.300000     0.842931     9.536680     L2
Au     11.680000     8.429314     9.536680     L2
Au     2.920000     3.371726     9.536680     L2
Au     11.680000     3.371726     9.536680     L2
Au     7.300000     10.958108     9.536680     L2
Au     16.059999     10.958108     9.536680     L2
Au     5.840000     3.371726     9.536680     L2
Au     14.600000     3.371726     9.536680     L2
Au     10.220000     10.958108     9.536680     L2
Au     18.980000     10.958108     9.536680     L2
Au     8.760000     3.371726     9.536680     L2
Au     13.140000     10.958108     9.536680     L2
Au     4.380000     5.900520     9.536680     L2
Au     13.140000     5.900520     9.536680     L2
Au     7.300000     5.900520     9.536680     L2
Au     16.059999     5.900520     9.536680     L2
Au     10.220000     5.900520     9.536680     L2
Au     8.760000     1.685863     11.920850     L2
Au     13.140000     9.272245     11.920850     L2
Au     2.920000     1.685863     11.920850     L2
Au     11.680000     1.685863     11.920850     L2
Au     7.300000     9.272245     11.920850     L2
Au     16.059999     9.272245     11.920850     L2
Au     5.840000     1.685863     11.920850     L2
Au     14.600000     1.685863     11.920850     L2
Au     10.220000     9.272245     11.920850     L2
Au     18.980000     9.272245     11.920850     L2
Au     10.220000     4.214657     11.920850     L2
Au     14.600000     11.801040     11.920850     L2
Au     4.380000     4.214657     11.920850     L2
Au     13.140000     4.214657     11.920850     L2
Au     8.760000     11.801040     11.920850     L2
Au     17.520000     11.801040     11.920850     L2
Au     7.300000     4.214657     11.920850     L2
Au     16.059999     4.214657     11.920850     L2
Au     11.680000     11.801040     11.920850     L2
Au     20.440001     11.801040     11.920850     L2
Au     11.680000     6.743451     11.920850     L2
Au     5.840000     6.743451     11.920850     L2
Au     14.600000     6.743451     11.920850     L2
Au     8.760000     6.743451     11.920850     L2
Au     17.520000     6.743451     11.920850     L2
Au     0.000000     0.000000     14.305019     L1
Au     8.760000     0.000000     14.305019     L1
Au     4.380000     7.586382     14.305019     L1
Au     13.140000     7.586382     14.305019     L1
Au     2.920000     0.000000     14.305019     L1
Au     11.680000     0.000000     14.305019     L1
Au     7.300000     7.586382     14.305019     L1
Au     16.059999     7.586382     14.305019     L1
Au     5.840000     0.000000     14.305019     L1
Au     10.220000     7.586382     14.305019     L1
Au     1.460000     2.528794     14.305019     L1
Au     10.220000     2.528794     14.305019     L1
Au     5.840000     10.115176     14.305019     L1
Au     14.600000     10.115176     14.305019     L1
Au     4.380000     2.528794     14.305019     L1
Au     13.140000     2.528794     14.305019     L1
Au     8.760000     10.115176     14.305019     L1
Au     17.520000     10.115176     14.305019     L1
Au     7.300000     2.528794     14.305019     L1
Au     11.680000     10.115176     14.305019     L1
Au     2.920000     5.057588     14.305019     L1
Au     11.680000     5.057588     14.305019     L1
Au     5.840000     5.057588     14.305019     L1
Au     14.600000     5.057588     14.305019     L1
Au     8.760000     5.057588     14.305019     L1
Au     1.460000     0.842931     16.689190     L1
Au     10.220000     0.842931     16.689190     L1
Au     5.840000     8.429314     16.689190     L1
Au     14.600000     8.429314     16.689190     L1
Au     4.380000     0.842931     16.689190     L1
Au     13.140000     0.842931     16.689190     L1
Au     8.760000     8.429314     16.689190     L1
Au     17.520000     8.429314     16.689190     L1
Au     7.300000     0.842931     16.689190     L1
Au     11.680000     8.429314     16.689190     L1
Au     2.920000     3.371726     16.689190     L1
Au     11.680000     3.371726     16.689190     L1
Au     7.300000     10.958108     16.689190     L1
Au     16.059999     10.958108     16.689190     L1
Au     5.840000     3.371726     16.689190     L1
Au     14.600000     3.371726     16.689190     L1
Au     10.220000     10.958108     16.689190     L1
Au     18.980000     10.958108     16.689190     L1
Au     8.760000     3.371726     16.689190     L1
Au     13.140000     10.958108     16.689190     L1
Au     4.380000     5.900520     16.689190     L1
Au     13.140000     5.900520     16.689190     L1
Au     7.300000     5.900520     16.689190     L1
Au     16.059999     5.900520     16.689190     L1
Au     10.220000     5.900520     16.689190     L1
Au     8.760000     1.685863     19.073360     L1
Au     13.140000     9.272245     19.073360     L1
Au     2.920000     1.685863     19.073360     L1
Au     11.680000     1.685863     19.073360     L1
Au     7.300000     9.272245     19.073360     L1
Au     16.059999     9.272245     19.073360     L1
Au     5.840000     1.685863     19.073360     L1
Au     14.600000     1.685863     19.073360     L1
Au     10.220000     9.272245     19.073360     L1
Au     18.980000     9.272245     19.073360     L1
Au     10.220000     4.214657     19.073360     L1
Au     14.600000     11.801040     19.073360     L1
Au     4.380000     4.214657     19.073360     L1
Au     13.140000     4.214657     19.073360     L1
Au     8.760000     11.801040     19.073360     L1
Au     17.520000     11.801040     19.073360     L1
Au     7.300000     4.214657     19.073360     L1
Au     16.059999     4.214657     19.073360     L1
Au     11.680000     11.801040     19.073360     L1
Au     20.440001     11.801040     19.073360     L1
Au     11.680000     6.743451     19.073360     L1
Au     5.840000     6.743451     19.073360     L1
Au     14.600000     6.743451     19.073360     L1
Au     8.760000     6.743451     19.073360     L1
Au     17.520000     6.743451     19.073360     L1
Au    0.0000000000    0.0000000000    21.2179026448    L0
Au    8.7600000000    0.0000000000    21.2171207228    L0
Au    4.3800000000    7.5863820000    21.2178080783    L0
Au    13.1400000000    7.5863820000    21.2293285142    L0
Au    2.9200000000    0.0000000000    21.2170960735    L0
Au    11.6800000000    0.0000000000    21.217993476    L0
Au    7.3000000000    7.5863820000    21.2156458215    L0
Au    16.0599990000    7.5863820000    21.2206286633    L0
Au    5.8400000000    0.0000000000    21.2180276277    L0
Au    10.2200000000    7.5863820000    21.221674944500002    L0
Au    1.4600000000    2.5287940000    21.2192167025    L0
Au    10.2200000000    2.5287940000    21.2154827465    L0
Au    5.8400000000    10.1151760000    21.2181614297    L0
Au    14.6000000000    10.1151760000    21.2195973378    L0
Au    4.3800000000    2.5287940000    21.2181478027    L0
Au    13.1400000000    2.5287940000    21.2220659058    L0
Au    8.7600000000    10.1151760000    21.2168429838    L0
Au    17.5200000000    10.1151760000    21.2178804839    L0
Au    7.3000000000    2.5287940000    21.2149635454    L0
Au    11.6800000000    10.1151760000    21.2212183523    L0
Au    2.9200000000    5.0575880000    21.2185941543    L0
Au    11.6800000000    5.0575880000    21.224066660400002    L0
Au    5.8400000000    5.0575880000    21.2162330443    L0
Au    14.6000000000    5.0575880000    21.2281172034    L0
Au    8.7600000000    5.0575880000    21.2139418905    L0
Au    1.4600000000    0.8429310000    23.8398513662    L0
Au    10.2200000000    0.8429310000    23.8399125757    L0
Au    5.8400000000    8.4293140000    23.8400070727    L0
Au    14.6000000000    8.4293140000    23.8454541417    L0
Au    4.3800000000    0.8429310000    23.840070227200002    L0
Au    13.1400000000    0.8429310000    23.8418486118    L0
Au    8.7600000000    8.4293140000    23.8394492878    L0
Au    17.5200000000    8.4293140000    23.8402057152    L0
Au    7.3000000000    0.8429310000    23.8396046014    L0
Au    11.6800000000    8.4293140000    23.8483061256    L0
Au    2.9200000000    3.3717260000    23.8404498617    L0
Au    11.6800000000    3.3717260000    23.8415100414    L0
Au    7.3000000000    10.9581080000    23.8402552018    L0
Au    16.0599990000    10.9581080000    23.8399963312    L0
Au    5.8400000000    3.3717260000    23.8393855935    L0
Au    14.6000000000    3.3717260000    23.8462491829    L0
Au    10.2200000000    10.9581080000    23.8406446339    L0
Au    18.9800000000    10.9581080000    23.840361672500002    L0
Au    8.7600000000    3.3717260000    23.833829288    L0
Au    13.1400000000    10.9581080000    23.841803221    L0
Au    4.3800000000    5.9005200000    23.8396556552    L0
Au    13.1400000000    5.9005200000    23.8534733793    L0
Au    7.3000000000    5.9005200000    23.8367942352    L0
Au    16.0599990000    5.9005200000    23.8440549619    L0
Au    10.2200000000    5.9005200000    23.8394344135    L0
Au    8.7600000000    1.6858630000    26.4615524753    L0
Au    13.1400000000    9.2722450000    26.4685598666    L0
Au    2.9200000000    1.6858630000    26.4619514625    L0
Au    11.6800000000    1.6858630000    26.4656167753    L0
Au    7.3000000000    9.2722450000    26.4634968051    L0
Au    16.0599990000    9.2722450000    26.4629965418    L0
Au    5.8400000000    1.6858630000    26.4627659439    L0
Au    14.6000000000    1.6858630000    26.4646404732    L0
Au    10.2200000000    9.2722450000    26.4671805322    L0
Au    18.9800000000    9.2722450000    26.4624850255    L0
Au    10.2200000000    4.2146570000    26.4475103028    L0
Au    14.6000000000    11.8010400000    26.4627254257    L0
Au    4.3800000000    4.2146570000    26.4620772693    L0
Au    13.1400000000    4.2146570000    26.4736549831    L0
Au    8.7600000000    11.8010400000    26.46250535    L0
Au    17.5200000000    11.8010400000    26.4628601721    L0
Au    7.3000000000    4.2146570000    26.4602733223    L0
Au    16.0599990000    4.2146570000    26.465096287    L0
Au    11.6800000000    11.8010400000    26.4637371844    L0
Au    20.4400010000    11.8010400000    26.4638083014    L0
Au    11.6800000000    6.7434510000    26.4713520242    L0
Au    5.8400000000    6.7434510000    26.461647075800002    L0
Au    14.6000000000    6.7434510000    26.469995896    L0
Au    8.7600000000    6.7434510000    26.4564889763    L0
Au    17.5200000000    6.7434510000    26.462312315600002    L0
C    11.0448935631    5.7375324150    39.7588462409    S
C    11.3536135371    6.9711391871    39.177946314500005    S
C    12.1728476549    7.0257292405    38.0481669299    S
C    12.6980608307    5.8550821227    37.4779391449    S
C    11.5723823629    4.5638438884    39.2125130852    S
C    12.3901427122    4.6254901063    38.0820431762    S
C    12.6955858173    5.8498476292    32.3995429938    S
H    12.4115117708    7.9928669111    37.5995737016    S
H    10.3911700904    5.6905880502    40.6313174303    S
H    11.3440000070    3.5988946271    39.6680565401    S
H    12.7992535427    3.7048561365    37.659582525800005    S
H    10.9537489024    7.8915200051    39.6065802919    S
C    12.2054216886    7.0235247413    31.8051979068    S
C    11.3860099452    6.9702071976    30.6752892288    S
C    11.0414069949    5.7348300393    30.119094588099998    S
C    11.5334885137    4.5573443987    30.689979246100002    S
C    12.3517559811    4.6178097235    31.819999386    S
H    11.0138089127    7.8931551326    30.2275988461    S
H    12.4721142616    7.9920807463    32.2344764946    S
H    11.2770807604    3.5905183450    30.2537966698    S
H    12.7331408712    3.6941719113    32.2614363416    S
H    10.3876302047    5.6895793168    29.246556218800002    S
C    13.5311647611    5.9132975649    36.2201246488    S
C    13.5298113320    5.9079373268    33.6566491368    S
C    12.6782813704    5.8499175714    34.9389496899    S
H    14.1260611261    6.8346381441    33.6630243946    S
H    14.2475096265    5.0717064536    33.6644695213    S
H    14.1242492329    6.8421067547    36.210790403000004    S
H    14.2517074673    5.0795773160    36.213681721    S
H    12.0794011835    4.9252135518    34.9413229901    S
H    11.9546441263    6.6805384021    34.9375843095    S
Au    8.7600020000    1.6858630000    43.410177726499995    R0
Au    13.1400000000    9.2722460000    43.405992481599995    R0
Au    2.9200000000    1.6858630000    43.409148292699996    R0
Au    11.6800000000    1.6858630000    43.407727784900004    R0
Au    7.3000000000    9.2722460000    43.407845353    R0
Au    16.0599990000    9.2722460000    43.4090152824    R0
Au    5.8400010000    1.6858630000    43.4080994202    R0
Au    14.6000000000    1.6858630000    43.407612664599995    R0
Au    10.2200000000    9.2722460000    43.406324856699996    R0
Au    18.9800000000    9.2722460000    43.4083389524    R0
Au    10.2200010000    4.2146570000    43.4276532092    R0
Au    14.6000000000    11.8010400000    43.408571930099995    R0
Au    4.3800000000    4.2146570000    43.4090353071    R0
Au    13.1400000000    4.2146570000    43.401611123500004    R0
Au    8.7600000000    11.8010400000    43.408648254300005    R0
Au    17.5200000000    11.8010400000    43.408219913500005    R0
Au    7.3000000000    4.2146570000    43.411478131500004    R0
Au    16.0599990000    4.2146570000    43.4086781683    R0
Au    11.6800000000    11.8010400000    43.4077322363    R0
Au    20.4400010000    11.8010400000    43.4072582593    R0
Au    11.6800000000    6.7434510000    43.403492578    R0
Au    5.8400000000    6.7434510000    43.4094764116    R0
Au    14.6000000000    6.7434510000    43.4055095159    R0
Au    8.7600000000    6.7434510000    43.4169961312    R0
Au    17.5200000000    6.7434510000    43.4095739391    R0
Au    1.4600000000    0.8429310000    46.0321852482    R0
Au    10.2200000000    0.8429310000    46.032650104300004    R0
Au    5.8400010000    8.4293140000    46.031705199200005    R0
Au    14.6000000000    8.4293140000    46.0290600502    R0
Au    4.3800000000    0.8429310000    46.031599363400005    R0
Au    13.1400010000    0.8429310000    46.0308970521    R0
Au    8.7600000000    8.4293140000    46.0338389948    R0
Au    17.5200000000    8.4293140000    46.031844812900005    R0
Au    7.3000010000    0.8429310000    46.0321738025    R0
Au    11.6800000000    8.4293140000    46.026243199    R0
Au    2.9200000000    3.3717260000    46.032000402899996    R0
Au    11.6800010000    3.3717260000    46.033517854799996    R0
Au    7.3000000000    10.9581090000    46.0315274835    R0
Au    16.0599980000    10.9581090000    46.0319227189    R0
Au    5.8400000000    3.3717260000    46.0323884229    R0
Au    14.6000000000    3.3717260000    46.0280821452    R0
Au    10.2200000000    10.9581090000    46.031828941    R0
Au    18.9800000000    10.9581090000    46.0312367943    R0
Au    8.7600000000    3.3717260000    46.0396613866    R0
Au    13.1399990000    10.9581090000    46.0309773668    R0
Au    4.3800000000    5.9005200000    46.0322478768    R0
Au    13.1400000000    5.9005200000    46.0219368559    R0
Au    7.3000000000    5.9005200000    46.0358518767    R0
Au    16.0599990000    5.9005200000    46.0302223694    R0
Au    10.2200000000    5.9005200000    46.0353509483    R0
Au    0.0000000000    0.0000000000    48.6546911832    R0
Au    8.7600000000    0.0000000000    48.655334255599996    R0
Au    4.3800000000    7.5863820000    48.6545078354    R0
Au    13.1399990000    7.5863820000    48.6459506529    R0
Au    2.9200000000    0.0000000000    48.655373683    R0
Au    11.6800000000    0.0000000000    48.6547693284    R0
Au    7.3000000000    7.5863820000    48.6573391266    R0
Au    16.0599990000    7.5863820000    48.653418041    R0
Au    5.8400000000    0.0000000000    48.6544136096    R0
Au    10.2200000000    7.5863820000    48.652909914    R0
Au    1.4600000000    2.5287940000    48.6541756811    R0
Au    10.2200000000    2.5287940000    48.658747038499996    R0
Au    5.8400000000    10.1151760000    48.6540345059    R0
Au    14.6000000000    10.1151760000    48.6538766122    R0
Au    4.3800000000    2.5287940000    48.6542186326    R0
Au    13.1400000000    2.5287940000    48.6524743488    R0
Au    8.7600000000    10.1151760000    48.656122390600004    R0
Au    17.5200000000    10.1151760000    48.6543907955    R0
Au    7.3000000000    2.5287940000    48.6577952138    R0
Au    11.6800000000    10.1151760000    48.6524898729    R0
Au    2.9200000000    5.0575880000    48.6546944025    R0
Au    11.6800000000    5.0575880000    48.651426719599996    R0
Au    5.8400000000    5.0575880000    48.6562612513    R0
Au    14.6000000000    5.0575880000    48.647195928100004    R0
Au    8.7600000000    5.0575880000    48.6601764237    R0
Au    8.760002    1.685863   50.80145264436466 R1
Au   13.140000    9.272246   50.80145264436466 R1
Au    2.920000    1.685863   50.80145264436466 R1
Au   11.680000    1.685863   50.80145264436466 R1
Au    7.300000    9.272246   50.80145264436466 R1
Au   16.059999    9.272246   50.80145264436466 R1
Au    5.840001    1.685863   50.80145264436466 R1
Au   14.600000    1.685863   50.80145264436466 R1
Au   10.220000    9.272246   50.80145264436466 R1
Au   18.980000    9.272246   50.80145264436466 R1
Au   10.220001    4.214657   50.80145264436466 R1
Au   14.600000   11.801040   50.80145264436466 R1
Au    4.380000    4.214657   50.80145264436466 R1
Au   13.140000    4.214657   50.80145264436466 R1
Au    8.760000   11.801040   50.80145264436466 R1
Au   17.520000   11.801040   50.80145264436466 R1
Au    7.300000    4.214657   50.80145264436466 R1
Au   16.059999    4.214657   50.80145264436466 R1
Au   11.680000   11.801040   50.80145264436466 R1
Au   20.440001   11.801040   50.80145264436466 R1
Au   11.680000    6.743451   50.80145264436466 R1
Au    5.840000    6.743451   50.80145264436466 R1
Au   14.600000    6.743451   50.80145264436466 R1
Au    8.760000    6.743451   50.80145264436466 R1
Au   17.520000    6.743451   50.80145264436466 R1
Au    1.460000    0.842931   53.185622644364656 R1
Au   10.220000    0.842931   53.185622644364656 R1
Au    5.840001    8.429314   53.185622644364656 R1
Au   14.600000    8.429314   53.185622644364656 R1
Au    4.380000    0.842931   53.185622644364656 R1
Au   13.140001    0.842931   53.185622644364656 R1
Au    8.760000    8.429314   53.185622644364656 R1
Au   17.520000    8.429314   53.185622644364656 R1
Au    7.300001    0.842931   53.185622644364656 R1
Au   11.680000    8.429314   53.185622644364656 R1
Au    2.920000    3.371726   53.185622644364656 R1
Au   11.680001    3.371726   53.185622644364656 R1
Au    7.300000   10.958109   53.185622644364656 R1
Au   16.059998   10.958109   53.185622644364656 R1
Au    5.840000    3.371726   53.185622644364656 R1
Au   14.600000    3.371726   53.185622644364656 R1
Au   10.220000   10.958109   53.185622644364656 R1
Au   18.980000   10.958109   53.185622644364656 R1
Au    8.760000    3.371726   53.185622644364656 R1
Au   13.139999   10.958109   53.185622644364656 R1
Au    4.380000    5.900520   53.185622644364656 R1
Au   13.140000    5.900520   53.185622644364656 R1
Au    7.300000    5.900520   53.185622644364656 R1
Au   16.059999    5.900520   53.185622644364656 R1
Au   10.220000    5.900520   53.185622644364656 R1
Au    0.000000    0.000000   55.56979264436466 R1
Au    8.760000    0.000000   55.56979264436466 R1
Au    4.380000    7.586382   55.56979264436466 R1
Au   13.139999    7.586382   55.56979264436466 R1
Au    2.920000    0.000000   55.56979264436466 R1
Au   11.680000    0.000000   55.56979264436466 R1
Au    7.300000    7.586382   55.56979264436466 R1
Au   16.059999    7.586382   55.56979264436466 R1
Au    5.840000    0.000000   55.56979264436466 R1
Au   10.220000    7.586382   55.56979264436466 R1
Au    1.460000    2.528794   55.56979264436466 R1
Au   10.220000    2.528794   55.56979264436466 R1
Au    5.840000   10.115176   55.56979264436466 R1
Au   14.600000   10.115176   55.56979264436466 R1
Au    4.380000    2.528794   55.56979264436466 R1
Au   13.140000    2.528794   55.56979264436466 R1
Au    8.760000   10.115176   55.56979264436466 R1
Au   17.520000   10.115176   55.56979264436466 R1
Au    7.300000    2.528794   55.56979264436466 R1
Au   11.680000   10.115176   55.56979264436466 R1
Au    2.920000    5.057588   55.56979264436466 R1
Au   11.680000    5.057588   55.56979264436466 R1
Au    5.840000    5.057588   55.56979264436466 R1
Au   14.600000    5.057588   55.56979264436466 R1
Au    8.760000    5.057588   55.56979264436466 R1
Au    8.760002    1.685863   57.95396264436466 R2
Au   13.140000    9.272246   57.95396264436466 R2
Au    2.920000    1.685863   57.95396264436466 R2
Au   11.680000    1.685863   57.95396264436466 R2
Au    7.300000    9.272246   57.95396264436466 R2
Au   16.059999    9.272246   57.95396264436466 R2
Au    5.840001    1.685863   57.95396264436466 R2
Au   14.600000    1.685863   57.95396264436466 R2
Au   10.220000    9.272246   57.95396264436466 R2
Au   18.980000    9.272246   57.95396264436466 R2
Au   10.220001    4.214657   57.95396264436466 R2
Au   14.600000   11.801040   57.95396264436466 R2
Au    4.380000    4.214657   57.95396264436466 R2
Au   13.140000    4.214657   57.95396264436466 R2
Au    8.760000   11.801040   57.95396264436466 R2
Au   17.520000   11.801040   57.95396264436466 R2
Au    7.300000    4.214657   57.95396264436466 R2
Au   16.059999    4.214657   57.95396264436466 R2
Au   11.680000   11.801040   57.95396264436466 R2
Au   20.440001   11.801040   57.95396264436466 R2
Au   11.680000    6.743451   57.95396264436466 R2
Au    5.840000    6.743451   57.95396264436466 R2
Au   14.600000    6.743451   57.95396264436466 R2
Au    8.760000    6.743451   57.95396264436466 R2
Au   17.520000    6.743451   57.95396264436466 R2
Au    1.460000    0.842931   60.338132644364656 R2
Au   10.220000    0.842931   60.338132644364656 R2
Au    5.840001    8.429314   60.338132644364656 R2
Au   14.600000    8.429314   60.338132644364656 R2
Au    4.380000    0.842931   60.338132644364656 R2
Au   13.140001    0.842931   60.338132644364656 R2
Au    8.760000    8.429314   60.338132644364656 R2
Au   17.520000    8.429314   60.338132644364656 R2
Au    7.300001    0.842931   60.338132644364656 R2
Au   11.680000    8.429314   60.338132644364656 R2
Au    2.920000    3.371726   60.338132644364656 R2
Au   11.680001    3.371726   60.338132644364656 R2
Au    7.300000   10.958109   60.338132644364656 R2
Au   16.059998   10.958109   60.338132644364656 R2
Au    5.840000    3.371726   60.338132644364656 R2
Au   14.600000    3.371726   60.338132644364656 R2
Au   10.220000   10.958109   60.338132644364656 R2
Au   18.980000   10.958109   60.338132644364656 R2
Au    8.760000    3.371726   60.338132644364656 R2
Au   13.139999   10.958109   60.338132644364656 R2
Au    4.380000    5.900520   60.338132644364656 R2
Au   13.140000    5.900520   60.338132644364656 R2
Au    7.300000    5.900520   60.338132644364656 R2
Au   16.059999    5.900520   60.338132644364656 R2
Au   10.220000    5.900520   60.338132644364656 R2
Au    0.000000    0.000000   62.72230264436466 R2
Au    8.760000    0.000000   62.72230264436466 R2
Au    4.380000    7.586382   62.72230264436466 R2
Au   13.139999    7.586382   62.72230264436466 R2
Au    2.920000    0.000000   62.72230264436466 R2
Au   11.680000    0.000000   62.72230264436466 R2
Au    7.300000    7.586382   62.72230264436466 R2
Au   16.059999    7.586382   62.72230264436466 R2
Au    5.840000    0.000000   62.72230264436466 R2
Au   10.220000    7.586382   62.72230264436466 R2
Au    1.460000    2.528794   62.72230264436466 R2
Au   10.220000    2.528794   62.72230264436466 R2
Au    5.840000   10.115176   62.72230264436466 R2
Au   14.600000   10.115176   62.72230264436466 R2
Au    4.380000    2.528794   62.72230264436466 R2
Au   13.140000    2.528794   62.72230264436466 R2
Au    8.760000   10.115176   62.72230264436466 R2
Au   17.520000   10.115176   62.72230264436466 R2
Au    7.300000    2.528794   62.72230264436466 R2
Au   11.680000   10.115176   62.72230264436466 R2
Au    2.920000    5.057588   62.72230264436466 R2
Au   11.680000    5.057588   62.72230264436466 R2
Au    5.840000    5.057588   62.72230264436466 R2
Au   14.600000    5.057588   62.72230264436466 R2
Au    8.760000    5.057588   62.72230264436466 R2
Au    8.760002    1.685863   65.10647264436466 R3
Au   13.140000    9.272246   65.10647264436466 R3
Au    2.920000    1.685863   65.10647264436466 R3
Au   11.680000    1.685863   65.10647264436466 R3
Au    7.300000    9.272246   65.10647264436466 R3
Au   16.059999    9.272246   65.10647264436466 R3
Au    5.840001    1.685863   65.10647264436466 R3
Au   14.600000    1.685863   65.10647264436466 R3
Au   10.220000    9.272246   65.10647264436466 R3
Au   18.980000    9.272246   65.10647264436466 R3
Au   10.220001    4.214657   65.10647264436466 R3
Au   14.600000   11.801040   65.10647264436466 R3
Au    4.380000    4.214657   65.10647264436466 R3
Au   13.140000    4.214657   65.10647264436466 R3
Au    8.760000   11.801040   65.10647264436466 R3
Au   17.520000   11.801040   65.10647264436466 R3
Au    7.300000    4.214657   65.10647264436466 R3
Au   16.059999    4.214657   65.10647264436466 R3
Au   11.680000   11.801040   65.10647264436466 R3
Au   20.440001   11.801040   65.10647264436466 R3
Au   11.680000    6.743451   65.10647264436466 R3
Au    5.840000    6.743451   65.10647264436466 R3
Au   14.600000    6.743451   65.10647264436466 R3
Au    8.760000    6.743451   65.10647264436466 R3
Au   17.520000    6.743451   65.10647264436466 R3
Au    1.460000    0.842931   67.49064264436466 R3
Au   10.220000    0.842931   67.49064264436466 R3
Au    5.840001    8.429314   67.49064264436466 R3
Au   14.600000    8.429314   67.49064264436466 R3
Au    4.380000    0.842931   67.49064264436466 R3
Au   13.140001    0.842931   67.49064264436466 R3
Au    8.760000    8.429314   67.49064264436466 R3
Au   17.520000    8.429314   67.49064264436466 R3
Au    7.300001    0.842931   67.49064264436466 R3
Au   11.680000    8.429314   67.49064264436466 R3
Au    2.920000    3.371726   67.49064264436466 R3
Au   11.680001    3.371726   67.49064264436466 R3
Au    7.300000   10.958109   67.49064264436466 R3
Au   16.059998   10.958109   67.49064264436466 R3
Au    5.840000    3.371726   67.49064264436466 R3
Au   14.600000    3.371726   67.49064264436466 R3
Au   10.220000   10.958109   67.49064264436466 R3
Au   18.980000   10.958109   67.49064264436466 R3
Au    8.760000    3.371726   67.49064264436466 R3
Au   13.139999   10.958109   67.49064264436466 R3
Au    4.380000    5.900520   67.49064264436466 R3
Au   13.140000    5.900520   67.49064264436466 R3
Au    7.300000    5.900520   67.49064264436466 R3
Au   16.059999    5.900520   67.49064264436466 R3
Au   10.220000    5.900520   67.49064264436466 R3
Au    0.000000    0.000000   69.87481264436465 R3
Au    8.760000    0.000000   69.87481264436465 R3
Au    4.380000    7.586382   69.87481264436465 R3
Au   13.139999    7.586382   69.87481264436465 R3
Au    2.920000    0.000000   69.87481264436465 R3
Au   11.680000    0.000000   69.87481264436465 R3
Au    7.300000    7.586382   69.87481264436465 R3
Au   16.059999    7.586382   69.87481264436465 R3
Au    5.840000    0.000000   69.87481264436465 R3
Au   10.220000    7.586382   69.87481264436465 R3
Au    1.460000    2.528794   69.87481264436465 R3
Au   10.220000    2.528794   69.87481264436465 R3
Au    5.840000   10.115176   69.87481264436465 R3
Au   14.600000   10.115176   69.87481264436465 R3
Au    4.380000    2.528794   69.87481264436465 R3
Au   13.140000    2.528794   69.87481264436465 R3
Au    8.760000   10.115176   69.87481264436465 R3
Au   17.520000   10.115176   69.87481264436465 R3
Au    7.300000    2.528794   69.87481264436465 R3
Au   11.680000   10.115176   69.87481264436465 R3
Au    2.920000    5.057588   69.87481264436465 R3
Au   11.680000    5.057588   69.87481264436465 R3
Au    5.840000    5.057588   69.87481264436465 R3
Au   14.600000    5.057588   69.87481264436465 R3
Au    8.760000    5.057588   69.87481264436465 R3
