      31
 i =       17, E =       -94.8432842331
C   -11.399901512643957   8.803926115165844   14.935145212028898
C   -11.09593360621042   10.035617982198291   14.348912395811869
C   -10.279537823683516   10.090803967369393   13.216701340962333
C   -9.7519005097631   8.921428191247761   12.64776326960667
C   -10.878516062588604   7.631256134722835   14.38221196862591
C   -10.062723188971445   7.692534441172612   13.249670386313552
C   -9.757230582716655   8.91665008066811   7.57347817644383
H   -10.043375095381018   11.058033176851763   12.766791186015556
H   -12.035856403014293   8.758641777523598   15.820025147822218
H   -11.104916842835175   6.665384033445164   14.836366475424567
H   -9.655695032805621   6.771507927591018   12.825703492169492
H   -11.493249885118502   10.957198424494248   14.776977926031558
C   -10.248885391229747   10.08943091128463   6.980069413855738
C   -11.063202827057086   10.03609196292433   5.84611663529389
C   -11.402162086513988   8.80263453304529   5.283528349811319
C   -10.918151894695558   7.626153477920469   5.8620210665672
C   -10.104157919348545   7.685604812064639   6.9958114747174145
H   -11.431325522349523   10.960419897483924   5.398317888200131
H   -9.984868777417436   11.057981803966458   7.411239326950518
H   -11.172462409415038   6.658571538234306   5.426647915108986
H   -9.726257639460222   6.761390024362938   7.439360515408106
H   -12.035854597481228   8.758644294751187   4.396952639457561
C   -8.914909199574339   8.980466215582139   11.39236111732486
C   -8.918510986018825   8.975299860867995   8.827871883011552
C   -9.766001218849112   8.917782077480865   10.111368630211443
H   -8.321753263943208   9.901848875309696   8.831312169814668
H   -8.200226757600554   8.139386339839582   8.832853327280825
H   -8.32126448743656   9.909074027201354   11.385238927019978
H   -8.194031280567575   8.146867690821606   11.387689604625507
H   -10.365387293097665   7.993371209008072   10.114272650248537
H   -10.489521258558025   9.748632019813533   10.110759472648422
