44
	Energy:      81.5390075
C         -1.06638      -10.54480        3.96694
C         -1.11436      -11.61106        4.83841
C         -1.40354      -11.41698        6.19570
C         -1.65983      -10.11311        6.67925
C         -1.32719       -9.24621        4.41388
C         -1.61944       -9.03191        5.77192
C         -0.45752       -8.35329       12.77224
H         -1.41937      -12.26536        6.86592
H         -1.29132       -8.41579        3.72056
H         -1.82289       -8.02326        6.11143
C         -0.44056       -9.44456       13.66738
C         -0.75282       -9.26202       15.02624
C         -1.08828       -7.98561       15.48380
C         -1.09463       -6.90812       14.62543
C         -0.78838       -7.07116       13.26560
H         -0.74673      -10.10119       15.70935
H         -0.18001      -10.43659       13.31928
H         -0.81687       -6.21691       12.60391
C         -2.00470       -9.89410        8.14316
C         -0.09678       -8.54370       11.30743
C         -1.25504       -9.11004       10.46006
C         -0.84994       -9.29511        8.97413
H         -2.11125       -8.40077       10.51161
H         -1.57863      -10.08612       10.88123
H         -0.53935       -8.31789        8.54545
H          0.01431       -9.99438        8.92434
H         -2.26506      -10.86956        8.60537
H         -2.90965       -9.24981        8.20026
H          0.79603       -9.20455       11.24643
H          0.19219       -7.56461       10.87100
S         -1.60360       -7.61883       17.15367
S         -0.58544      -10.95945        2.29856
C         -1.39090       -5.84318       16.77570
C         -1.51641       -5.63035       15.26081
H         -0.35659       -5.59538       17.09728
H         -2.10934       -5.18825       17.31546
H         -0.89757       -4.75530       14.96803
H         -2.57191       -5.46194       14.95888
C         -0.76570      -12.91743        4.21576
C         -0.89108      -12.71688        2.69977
H         -1.42634      -13.75552        4.52510
H          0.28210      -13.13654        4.51224
H         -1.93958      -12.91358        2.38886
H         -0.21263      -13.41621        2.16389
