      44
 i =       64, E =      -147.2815589871
C   -10.495771153011   -3.7908609790051715   1.5989100022976364
C   -11.705935832922947   -4.080126695899681   2.2561241532849206
C   -11.697137553610572   -4.358056139038912   3.620950840356115
C   -10.497609323157715   -4.3474011139216255   4.354935225882817
C   -9.29106552269223   -3.7696301546035427   2.305923818052833
C   -9.307069434254712   -4.045520172227117   3.6766302775128326
C   -10.860839597332538   -2.5909106048515467   10.518777066352072
H   -12.635764896382708   -4.592366537242415   4.130541918382843
H   -8.349435908823843   -3.5583454121859144   1.7983490070548576
H   -8.36446771427458   -4.043255919920444   4.2286455597810155
C   -12.064850780092897   -2.83407726004051   11.196589902474237
C   -12.095442879651484   -3.104918344193867   12.56819753263723
C   -10.89187632732524   -3.139002647057346   13.27638986158494
C   -9.668516724877193   -2.909703481462153   12.6195824040621
C   -9.662700806159162   -2.6353760993137194   11.25411816221249
H   -13.046659219098533   -3.26927910646571   13.075241187130642
H   -13.005844585087623   -2.792845423750819   10.643391134435753
H   -8.713366335301231   -2.4472116591449264   10.745195489372596
C   -10.498794643173541   -4.612853605662847   5.841658512815161
C   -10.8458065285872   -2.327653357177072   9.031780458223556
C   -10.679712564606506   -3.6069758362275905   8.190395472559135
C   -10.67013321079222   -3.335331749187072   6.684544792428486
H   -9.74470005263439   -4.112931369973301   8.484337094666824
H   -11.49381992772359   -4.308578223433216   8.438161156258394
H   -9.858966438925506   -2.63006002141924   6.437446451101701
H   -11.607104857278625   -2.8330540741427694   6.390654320392012
H   -11.309031002194239   -5.317237497364665   6.090605751092785
H   -9.557233916539545   -5.107841529849705   6.129711448092894
H   -11.78089980085316   -1.8246344550216906   8.737003219442247
H   -10.027749897843929   -1.6305772655820525   8.787493659135057
S   -10.702540912449097   -3.466862350611607   15.002865051974549
S   -10.702540912449097   -3.466862350611607   -0.12631997776456227
C   -8.976942925844956   -2.832201614884272   14.96058163100073
C   -8.471221775014122   -3.0596070876558796   13.5287244842072
H   -8.998437810018975   -1.7622311166852473   15.210874493540864
H   -8.3881711514982   -3.3649300200124355   15.716414222800108
H   -7.659623398119847   -2.3611010777292227   13.278951508560379
H   -8.069186161154015   -4.083199639310693   13.43162665909982
C   -12.910145269124044   -3.9848678528669175   1.3487586880312907
C   -12.39579322937953   -4.183428523219678   -0.08428716374945022
H   -13.687030123244623   -4.722255782610552   1.597218114383704
H   -13.36071601896251   -2.982054728250187   1.4495607523904486
H   -12.323398480138952   -5.250388562173674   -0.3378607641156921
H   -13.010268094082658   -3.6771953219705185   -0.837863398746912
