     187
 i =       24, E =     -5094.0164425325
 Au         0.0000000000        0.0000000000       -0.2393853622
 Au         8.7600000000        0.0000000000       -0.2373931798
 Au         4.3800000000        7.5863820000       -0.2397224484
 Au        13.1400000000        7.5863820000       -0.2418147418
 Au         2.9200000000        0.0000000000       -0.2390545377
 Au        11.6800000000        0.0000000000       -0.2372513686
 Au         7.3000000000        7.5863820000       -0.2416231239
 Au        16.0599990000        7.5863820000       -0.2396102836
 Au         5.8400000000        0.0000000000       -0.2393819716
 Au        10.2200000000        7.5863820000       -0.2399938314
 Au         1.4600000000        2.5287940000       -0.2406417641
 Au        10.2200000000        2.5287940000       -0.2261762253
 Au         5.8400000000       10.1151760000       -0.2397687794
 Au        14.6000000000       10.1151760000       -0.2395842180
 Au         4.3800000000        2.5287940000       -0.2401009531
 Au        13.1400000000        2.5287940000       -0.2337161537
 Au         8.7600000000       10.1151760000       -0.2413420457
 Au        17.5200000000       10.1151760000       -0.2391528013
 Au         7.3000000000        2.5287940000       -0.2330834110
 Au        11.6800000000       10.1151760000       -0.2413581687
 Au         2.9200000000        5.0575880000       -0.2399965466
 Au        11.6800000000        5.0575880000       -0.2317595254
 Au         5.8400000000        5.0575880000       -0.2394042237
 Au        14.6000000000        5.0575880000       -0.2401316929
 Au         8.7600000000        5.0575880000       -0.2311318321
 Au         1.4600000000        0.8429310000        2.3831455010
 Au        10.2200000000        0.8429310000        2.3883287902
 Au         5.8400000000        8.4293140000        2.3832204206
 Au        14.6000000000        8.4293140000        2.3833884356
 Au         4.3800000000        0.8429310000        2.3831232542
 Au        13.1400000000        0.8429310000        2.3852758628
 Au         8.7600000000        8.4293140000        2.3794341767
 Au        17.5200000000        8.4293140000        2.3835949324
 Au         7.3000000000        0.8429310000        2.3849677170
 Au        11.6800000000        8.4293140000        2.3791240487
 Au         2.9200000000        3.3717260000        2.3827221922
 Au        11.6800000000        3.3717260000        2.3962101129
 Au         7.3000000000       10.9581080000        2.3828973974
 Au        16.0599990000       10.9581080000        2.3831528717
 Au         5.8400000000        3.3717260000        2.3848919849
 Au        14.6000000000        3.3717260000        2.3839348915
 Au        10.2200000000       10.9581080000        2.3832195484
 Au        18.9800000000       10.9581080000        2.3832170302
 Au         8.7600000000        3.3717260000        2.3967528498
 Au        13.1400000000       10.9581080000        2.3828388302
 Au         4.3800000000        5.9005200000        2.3836765466
 Au        13.1400000000        5.9005200000        2.3822190682
 Au         7.3000000000        5.9005200000        2.3831398171
 Au        16.0599990000        5.9005200000        2.3837231484
 Au        10.2200000000        5.9005200000        2.3870243170
 Au         8.7600000000        1.6858630000        5.0116401305
 Au        13.1400000000        9.2722450000        5.0054684373
 Au         2.9200000000        1.6858630000        5.0057009949
 Au        11.6800000000        1.6858630000        5.0125892999
 Au         7.3000000000        9.2722450000        5.0056666120
 Au        16.0599990000        9.2722450000        5.0059996752
 Au         5.8400000000        1.6858630000        5.0067333649
 Au        14.6000000000        1.6858630000        5.0070395671
 Au        10.2200000000        9.2722450000        5.0058193214
 Au        18.9800000000        9.2722450000        5.0060650052
 Au        10.2200000000        4.2146570000        5.0255480998
 Au        14.6000000000       11.8010400000        5.0052063520
 Au         4.3800000000        4.2146570000        5.0065590779
 Au        13.1400000000        4.2146570000        5.0105626108
 Au         8.7600000000       11.8010400000        5.0060940714
 Au        17.5200000000       11.8010400000        5.0065385306
 Au         7.3000000000        4.2146570000        5.0127341096
 Au        16.0599990000        4.2146570000        5.0066774363
 Au        11.6800000000       11.8010400000        5.0059045375
 Au        20.4400010000       11.8010400000        5.0055105855
 Au        11.6800000000        6.7434510000        4.9953873271
 Au         5.8400000000        6.7434510000        5.0084727891
 Au        14.6000000000        6.7434510000        5.0085288267
 Au         8.7600000000        6.7434510000        4.9963393910
 Au        17.5200000000        6.7434510000        5.0070873347
  C        10.3306334953        5.0676741767       20.9002498366
  C        11.4756896682        4.5061423541       20.3275860692
  C        11.3665305801        3.7035239288       19.1899342108
  C        10.1172027502        3.4437761988       18.6039880211
  C         9.0777296982        4.8081374901       20.3368971241
  C         8.9758769166        4.0047244958       19.1990413542
  C        10.1140454611        3.4423553130       10.9573118808
  H        12.2648912095        3.2661798353       18.7484505841
  H        10.4151478850        5.7105115184       21.7781972268
  H         8.1790754589        5.2332770687       20.7867063280
  H         7.9938803124        3.8041934453       18.7646701874
  H        12.4550709060        4.6948853649       20.7702139318
  C         8.9743981512        4.0122089992       10.3675328133
  C         9.0774693780        4.8160530085        9.2301942314
  C        10.3298505734        5.0668563971        8.6616989644
  C        11.4730479348        4.4961410032        9.2289093200
  C        11.3627629113        3.6932762050       10.3662521932
  H         8.1800361125        5.2482805279        8.7848174088
  H         7.9928018536        3.8185176983       10.8059395813
  H        12.4519058675        4.6780027593        8.7822720673
  H        12.2595798830        3.2487625737       10.8037005087
  H        10.4153373446        5.7101383316        7.7841705454
  C        10.0086042983        2.6183775262       17.3443656855
  C        10.0046841496        2.6173234200       12.2171117849
  C        10.1204770914        3.4608536490       13.5015433650
  C        10.1202689109        3.4616929175       16.0595043614
  H        10.7981731099        1.8497657612       17.3379454796
  H         9.0467970813        2.0807921838       17.3376009150
  H         9.0413600289        2.0823998879       12.2255684801
  H        10.7921319784        1.8465206271       12.2224723871
  C        10.0082032723        2.6263650887       14.7807936987
  H        11.0807166408        4.0033703252       16.0666873300
  H         9.3353227222        4.2360773051       16.0675478554
  H        10.7927348661        1.8495277465       14.7810858776
  H         9.0463888263        2.0842716882       14.7808812282
  H        11.0823378415        3.9999989992       13.4925981990
  H         9.3375008357        4.2372821428       13.4942187257
 Au         8.7600020000        1.6858630000       24.5508821469
 Au        13.1400000000        9.2722460000       24.5539968216
 Au         2.9200000000        1.6858630000       24.5536916748
 Au        11.6800000000        1.6858630000       24.5498723274
 Au         7.3000000000        9.2722460000       24.5538297104
 Au        16.0599990000        9.2722460000       24.5534363789
 Au         5.8400010000        1.6858630000       24.5536329444
 Au        14.6000000000        1.6858630000       24.5532521020
 Au        10.2200000000        9.2722460000       24.5539331138
 Au        18.9800000000        9.2722460000       24.5533897039
 Au        10.2200010000        4.2146570000       24.5373637354
 Au        14.6000000000       11.8010400000       24.5546281096
 Au         4.3800000000        4.2146570000       24.5530363696
 Au        13.1400000000        4.2146570000       24.5513776103
 Au         8.7600000000       11.8010400000       24.5532612715
 Au        17.5200000000       11.8010400000       24.5544995906
 Au         7.3000000000        4.2146570000       24.5492989246
 Au        16.0599990000        4.2146570000       24.5529071945
 Au        11.6800000000       11.8010400000       24.5534554263
 Au        20.4400010000       11.8010400000       24.5542575760
 Au        11.6800000000        6.7434510000       24.5664111795
 Au         5.8400000000        6.7434510000       24.5515901380
 Au        14.6000000000        6.7434510000       24.5515056159
 Au         8.7600000000        6.7434510000       24.5655100609
 Au        17.5200000000        6.7434510000       24.5522570678
 Au         1.4600000000        0.8429310000       27.1773057587
 Au        10.2200000000        0.8429310000       27.1739431138
 Au         5.8400010000        8.4293140000       27.1772042691
 Au        14.6000000000        8.4293140000       27.1770377144
 Au         4.3800000000        0.8429310000       27.1773485922
 Au        13.1400010000        0.8429310000       27.1760993018
 Au         8.7600000000        8.4293140000       27.1814892029
 Au        17.5200000000        8.4293140000       27.1766879018
 Au         7.3000010000        0.8429310000       27.1764575202
 Au        11.6800000000        8.4293140000       27.1817877830
 Au         2.9200000000        3.3717260000       27.1776160036
 Au        11.6800010000        3.3717260000       27.1663224553
 Au         7.3000000000       10.9581090000       27.1774399634
 Au        16.0599980000       10.9581090000       27.1775960456
 Au         5.8400000000        3.3717260000       27.1763096245
 Au        14.6000000000        3.3717260000       27.1771786317
 Au        10.2200000000       10.9581090000       27.1771003714
 Au        18.9800000000       10.9581090000       27.1775150547
 Au         8.7600000000        3.3717260000       27.1658563592
 Au        13.1399990000       10.9581090000       27.1775090611
 Au         4.3800000000        5.9005200000       27.1767576214
 Au        13.1400000000        5.9005200000       27.1794152379
 Au         7.3000000000        5.9005200000       27.1785665550
 Au        16.0599990000        5.9005200000       27.1767024526
 Au        10.2200000000        5.9005200000       27.1752926046
 Au         0.0000000000        0.0000000000       29.8005170149
 Au         8.7600000000        0.0000000000       29.7991381294
 Au         4.3800000000        7.5863820000       29.8005918567
 Au        13.1399990000        7.5863820000       29.8031258163
 Au         2.9200000000        0.0000000000       29.7999548531
 Au        11.6800000000        0.0000000000       29.7989745231
 Au         7.3000000000        7.5863820000       29.8029596433
 Au        16.0599990000        7.5863820000       29.8004888662
 Au         5.8400000000        0.0000000000       29.8005258579
 Au        10.2200000000        7.5863820000       29.8016422195
 Au         1.4600000000        2.5287940000       29.8016960607
 Au        10.2200000000        2.5287940000       29.7887419006
 Au         5.8400000000       10.1151760000       29.8006941331
 Au        14.6000000000       10.1151760000       29.8005298273
 Au         4.3800000000        2.5287940000       29.8012012995
 Au        13.1400000000        2.5287940000       29.7955984490
 Au         8.7600000000       10.1151760000       29.8022897894
 Au        17.5200000000       10.1151760000       29.8002483556
 Au         7.3000000000        2.5287940000       29.7950575416
 Au        11.6800000000       10.1151760000       29.8023104907
 Au         2.9200000000        5.0575880000       29.8008616812
 Au        11.6800000000        5.0575880000       29.7940443113
 Au         5.8400000000        5.0575880000       29.8008388979
 Au        14.6000000000        5.0575880000       29.8014896369
 Au         8.7600000000        5.0575880000       29.7934753135
