      37
 i =       81, E =      -108.6080799152
C   8.90203497335473   9.797517193397098   -1.0346863182434922
C   10.046679194346158   9.241899314939463   -1.6127601926014172
C   9.938443060988908   8.440362473295483   -2.751825615294062
C   8.689797293102389   8.177416817524223   -3.3360075142048946
C   7.651292045085046   9.542862565565427   -1.603750698733978
C   7.549402803101303   8.740643856058409   -2.743037342804098
C   8.687494355998993   8.175449403741908   -10.978118149469356
H   10.837877446317702   8.00549097492176   -3.1943312437430578
H   8.983691806793155   10.420755925636882   -0.14330578294974483
H   6.750954363815326   9.966793934008573   -1.1563923074721951
H   6.5671744002410275   8.542285144487565   -3.1785625927794787
H   11.027160627012375   9.429542964279824   -1.1724699733884547
C   7.548614401265341   8.747957688516255   -11.565342256023822
C   7.651306099856637   9.551036500180638   -12.703842747557829
C   8.90129945187498   9.797031276340903   -13.278230741222165
C   10.044355145443232   9.232222612318827   -12.706051772540906
C   9.935414131651935   8.430061672737363   -11.567391226743757
H   6.752150890499097   9.98224449203882   -13.146562125804119
H   6.566897999322537   8.556008603706365   -11.125866647463589
H   11.024342558950059   9.413423934482957   -13.150329127717356
H   10.833470558114406   7.987565978093142   -11.12973978774832
H   8.983689237849429   10.420753413745153   -14.169230147058444
C   8.581152909627384   7.348953007970945   -4.59385131330248
C   8.577875589590812   7.34686406494191   -9.720386927701856
C   8.693479240935536   8.188458176223929   -8.435770613376128
C   8.69274456552191   8.190291455907351   -5.8790048473642305
H   9.370599747446887   6.5800129719760365   -4.598911900842934
H   7.619422220118105   6.810929381217741   -4.599415837595151
H   7.614349410232091   6.812008022993226   -9.713611389529461
H   9.364820856015243   6.575380255489032   -9.716483432442633
C   8.5804141314985   7.3546831223533795   -7.1568639157628455
H   9.65314093591374   8.732145841750146   -5.8720457991125095
H   7.908136045455138   8.965073580936307   -5.871007650787073
H   9.364416162832683   6.5772448856984145   -7.1560326850257745
H   7.618171862868436   6.813251682941327   -7.1566370547843885
H   9.655400873732816   8.7275212586329   -8.4444634524142
H   7.9111352869798015   8.965535294416306   -8.443464065074282
