    416
 i =       82, E =     -3365.3998523447
 Au    0.000000    0.000000    0.000000    L3
Au    8.760000    0.000000    0.000000    L3
Au    4.380000    7.586382    0.000000    L3
Au    13.140000    7.586382    0.000000    L3
Au    2.920000    0.000000    0.000000    L3
Au    7.300000    7.586382    0.000000    L3
Au    5.840000    0.000000    0.000000    L3
Au    10.220000    7.586382    0.000000    L3
Au    1.460000    2.528794    0.000000    L3
Au    10.220000    2.528794    0.000000    L3
Au    4.380000    2.528794    0.000000    L3
Au    7.300000    2.528794    0.000000    L3
Au    2.920000    5.057588    0.000000    L3
Au    11.680000    5.057588    0.000000    L3
Au    5.840000    5.057588    0.000000    L3
Au    8.760000    5.057588    0.000000    L3
Au    1.460000    0.842931    2.384170    L3
Au    10.220000    0.842931    2.384170    L3
Au    5.840000    8.429314    2.384170    L3
Au    14.600000    8.429314    2.384170    L3
Au    4.380000    0.842931    2.384170    L3
Au    8.760000    8.429314    2.384170    L3
Au    7.300000    0.842931    2.384170    L3
Au    11.680000    8.429314    2.384170    L3
Au    2.920000    3.371726    2.384170    L3
Au    11.680000    3.371726    2.384170    L3
Au    5.840000    3.371726    2.384170    L3
Au    8.760000    3.371726    2.384170    L3
Au    4.380000    5.900520    2.384170    L3
Au    13.140000    5.900520    2.384170    L3
Au    7.300000    5.900520    2.384170    L3
Au    10.220000    5.900520    2.384170    L3
Au    8.760000    1.685863    4.768340    L3
Au    13.140000    9.272245    4.768340    L3
Au    2.920000    1.685863    4.768340    L3
Au    11.680000    1.685863    4.768340    L3
Au    7.300000    9.272245    4.768340    L3
Au    16.059999    9.272245    4.768340    L3
Au    5.840000    1.685863    4.768340    L3
Au    10.220000    9.272245    4.768340    L3
Au    10.220000    4.214657    4.768340    L3
Au    4.380000    4.214657    4.768340    L3
Au    13.140000    4.214657    4.768340    L3
Au    7.300000    4.214657    4.768340    L3
Au    11.680000    6.743451    4.768340    L3
Au    5.840000    6.743451    4.768340    L3
Au    14.600000    6.743451    4.768340    L3
Au    8.760000    6.743451    4.768340    L3
Au    0.000000    0.000000    7.152510    L2
Au    8.760000    0.000000    7.152510    L2
Au    4.380000    7.586382    7.152510    L2
Au    13.140000    7.586382    7.152510    L2
Au    2.920000    0.000000    7.152510    L2
Au    7.300000    7.586382    7.152510    L2
Au    5.840000    0.000000    7.152510    L2
Au    10.220000    7.586382    7.152510    L2
Au    1.460000    2.528794    7.152510    L2
Au    10.220000    2.528794    7.152510    L2
Au    4.380000    2.528794    7.152510    L2
Au    7.300000    2.528794    7.152510    L2
Au    2.920000    5.057588    7.152510    L2
Au    11.680000    5.057588    7.152510    L2
Au    5.840000    5.057588    7.152510    L2
Au    8.760000    5.057588    7.152510    L2
Au    1.460000    0.842931    9.536680    L2
Au    10.220000    0.842931    9.536680    L2
Au    5.840000    8.429314    9.536680    L2
Au    14.600000    8.429314    9.536680    L2
Au    4.380000    0.842931    9.536680    L2
Au    8.760000    8.429314    9.536680    L2
Au    7.300000    0.842931    9.536680    L2
Au    11.680000    8.429314    9.536680    L2
Au    2.920000    3.371726    9.536680    L2
Au    11.680000    3.371726    9.536680    L2
Au    5.840000    3.371726    9.536680    L2
Au    8.760000    3.371726    9.536680    L2
Au    4.380000    5.900520    9.536680    L2
Au    13.140000    5.900520    9.536680    L2
Au    7.300000    5.900520    9.536680    L2
Au    10.220000    5.900520    9.536680    L2
Au    8.760000    1.685863    11.920850    L2
Au    13.140000    9.272245    11.920850    L2
Au    2.920000    1.685863    11.920850    L2
Au    11.680000    1.685863    11.920850    L2
Au    7.300000    9.272245    11.920850    L2
Au    16.059999    9.272245    11.920850    L2
Au    5.840000    1.685863    11.920850    L2
Au    10.220000    9.272245    11.920850    L2
Au    10.220000    4.214657    11.920850    L2
Au    4.380000    4.214657    11.920850    L2
Au    13.140000    4.214657    11.920850    L2
Au    7.300000    4.214657    11.920850    L2
Au    11.680000    6.743451    11.920850    L2
Au    5.840000    6.743451    11.920850    L2
Au    14.600000    6.743451    11.920850    L2
Au    8.760000    6.743451    11.920850    L2
Au    0.000000    0.000000    14.305019    L1
Au    8.760000    0.000000    14.305019    L1
Au    4.380000    7.586382    14.305019    L1
Au    13.140000    7.586382    14.305019    L1
Au    2.920000    0.000000    14.305019    L1
Au    7.300000    7.586382    14.305019    L1
Au    5.840000    0.000000    14.305019    L1
Au    10.220000    7.586382    14.305019    L1
Au    1.460000    2.528794    14.305019    L1
Au    10.220000    2.528794    14.305019    L1
Au    4.380000    2.528794    14.305019    L1
Au    7.300000    2.528794    14.305019    L1
Au    2.920000    5.057588    14.305019    L1
Au    11.680000    5.057588    14.305019    L1
Au    5.840000    5.057588    14.305019    L1
Au    8.760000    5.057588    14.305019    L1
Au    1.460000    0.842931    16.689190    L1
Au    10.220000    0.842931    16.689190    L1
Au    5.840000    8.429314    16.689190    L1
Au    14.600000    8.429314    16.689190    L1
Au    4.380000    0.842931    16.689190    L1
Au    8.760000    8.429314    16.689190    L1
Au    7.300000    0.842931    16.689190    L1
Au    11.680000    8.429314    16.689190    L1
Au    2.920000    3.371726    16.689190    L1
Au    11.680000    3.371726    16.689190    L1
Au    5.840000    3.371726    16.689190    L1
Au    8.760000    3.371726    16.689190    L1
Au    4.380000    5.900520    16.689190    L1
Au    13.140000    5.900520    16.689190    L1
Au    7.300000    5.900520    16.689190    L1
Au    10.220000    5.900520    16.689190    L1
Au    8.760000    1.685863    19.073360    L1
Au    13.140000    9.272245    19.073360    L1
Au    2.920000    1.685863    19.073360    L1
Au    11.680000    1.685863    19.073360    L1
Au    7.300000    9.272245    19.073360    L1
Au    16.059999    9.272245    19.073360    L1
Au    5.840000    1.685863    19.073360    L1
Au    10.220000    9.272245    19.073360    L1
Au    10.220000    4.214657    19.073360    L1
Au    4.380000    4.214657    19.073360    L1
Au    13.140000    4.214657    19.073360    L1
Au    7.300000    4.214657    19.073360    L1
Au    11.680000    6.743451    19.073360    L1
Au    5.840000    6.743451    19.073360    L1
Au    14.600000    6.743451    19.073360    L1
Au    8.760000    6.743451    19.073360    L1
Au    0.0000000000    0.0000000000    21.457530064    L0
Au    8.7600000000    0.0000000000    21.457530064    L0
Au    4.3800000000    7.5863820000    21.457530064    L0
Au    13.1400000000    7.5863820000    21.457530064    L0
Au    2.9200000000    0.0000000000    21.457530064    L0
Au    7.3000000000    7.5863820000    21.457530064    L0
Au    5.8400000000    0.0000000000    21.457530064    L0
Au    10.2200000000    7.5863820000    21.457530064    L0
Au    1.4600000000    2.5287940000    21.457530064    L0
Au    10.2200000000    2.5287940000    21.457530064    L0
Au    4.3800000000    2.5287940000    21.457530064    L0
Au    7.3000000000    2.5287940000    21.457530064    L0
Au    2.9200000000    5.0575880000    21.457530064    L0
Au    11.6800000000    5.0575880000    21.457530064    L0
Au    5.8400000000    5.0575880000    21.457530064    L0
Au    8.7600000000    5.0575880000    21.457530064    L0
Au    1.4600000000    0.8429310000    23.841700064    L0
Au    10.2200000000    0.8429310000    23.841700064    L0
Au    5.8400000000    8.4293140000    23.841700064    L0
Au    14.6000000000    8.4293140000    23.841700064    L0
Au    4.3800000000    0.8429310000    23.841700064    L0
Au    8.7600000000    8.4293140000    23.841700064    L0
Au    7.3000000000    0.8429310000    23.841700064    L0
Au    11.6800000000    8.4293140000    23.841700064    L0
Au    2.9200000000    3.3717260000    23.841700064    L0
Au    11.6800000000    3.3717260000    23.841700064    L0
Au    5.8400000000    3.3717260000    23.841700064    L0
Au    8.7600000000    3.3717260000    23.841700064    L0
Au    4.3800000000    5.9005200000    23.841700064    L0
Au    13.1400000000    5.9005200000    23.841700064    L0
Au    7.3000000000    5.9005200000    23.841700064    L0
Au    10.2200000000    5.9005200000    23.841700064    L0
Au    8.7600000000    1.6858630000    26.225870064    L0
Au    13.1400000000    9.2722450000    26.225870064    L0
Au    2.9200000000    1.6858630000    26.225870064    L0
Au    11.6800000000    1.6858630000    26.225870064    L0
Au    7.3000000000    9.2722450000    26.225870064    L0
Au    16.0599990000    9.2722450000    26.225870064    L0
Au    5.8400000000    1.6858630000    26.225870064    L0
Au    10.2200000000    9.2722450000    26.225870064    L0
Au    10.2200000000    4.2146570000    26.225870064    L0
Au    4.3800000000    4.2146570000    26.225870064    L0
Au    13.1400000000    4.2146570000    26.225870064    L0
Au    7.3000000000    4.2146570000    26.225870064    L0
Au    11.6800000000    6.7434510000    26.225870064    L0
Au    5.8400000000    6.7434510000    26.225870064    L0
Au    14.6000000000    6.7434510000    26.225870064    L0
Au    8.7600000000    6.7434510000    26.225870064    L0
C    8.8506929249    6.9098517762    40.9863862551    S
C    10.0915775840    6.6633183235    40.369405503500005    S
C    10.1356178778    6.1850641246    39.064083295900005    S
C    8.9568456877    5.9305339951    38.3317765994    S
C    7.6674166449    6.5443455440    40.316204758    S
C    7.7273036628    6.0674954449    39.0107987197    S
C    9.0171636184    5.6602548588    36.8800164631    S
C    10.1117301709    5.0060964664    36.2778422278    S
C    10.2410688850    4.9356101298    34.8938667358    S
C    9.2831079295    5.5152047233    34.0363372913    S
C    8.0203791540    6.1671392996    36.0219016351    S
C    8.1496480874    6.0967221189    34.6391190359    S
C    9.4962941991    5.6352768151    32.5788849375    S
C    8.4176567104    5.6842231157    31.6695994047    S
C    8.6078607909    6.0149045854    30.331593506300003    S
C    9.8989448635    6.3196184225    29.8608795712    S
C    10.7935744423    5.8289839374    32.0598359529    S
C    10.9991887905    6.1632005652    30.7259490314    S
H    11.0133798105    6.9152411216    40.893769236699995    S
H    11.1054656105    6.0815177817    38.576452108    S
S    8.7729598485    7.9733999612    42.3962270599    S
H    6.7044840419    6.6816169704    40.808435248500004    S
H    6.7978392243    5.8116070388    38.500669118000005    S
H    7.1682744707    6.7003005525    36.4445506597    S
H    10.8749786172    4.5443019213    36.9055426806    S
H    11.1028743283    4.4199103969    34.4681639465    S
H    7.3958658458    6.5765799839    34.0141443272    S
H    11.6529409343    5.7937131402    32.7302127458    S
H    7.4064480041    5.4752980914    32.0209577786    S
H    7.7563116893    6.0841876424    29.654387888800002    S
S    10.1421090785    7.1978148021    28.3450146831    S
H    12.0051566673    6.3712696157    30.3615752646    S
Au    0.0000000000    0.0000000000    44.5253323271    R0
Au    8.7600000000    0.0000000000    44.5253323271    R0
Au    4.3800000000    7.5863820000    44.5253323271    R0
Au    13.1400000000    7.5863820000    44.5253323271    R0
Au    2.9200000000    0.0000000000    44.5253323271    R0
Au    7.3000000000    7.5863820000    44.5253323271    R0
Au    5.8400000000    0.0000000000    44.5253323271    R0
Au    10.2200000000    7.5863820000    44.5253323271    R0
Au    1.4600000000    2.5287940000    44.5253323271    R0
Au    10.2200000000    2.5287940000    44.5253323271    R0
Au    4.3800000000    2.5287940000    44.5253323271    R0
Au    7.3000000000    2.5287940000    44.5253323271    R0
Au    2.9200000000    5.0575880000    44.5253323271    R0
Au    11.6800000000    5.0575880000    44.5253323271    R0
Au    5.8400000000    5.0575880000    44.5253323271    R0
Au    8.7600000000    5.0575880000    44.5253323271    R0
Au    1.4600000000    0.8429310000    46.9095023271    R0
Au    10.2200000000    0.8429310000    46.9095023271    R0
Au    5.8400000000    8.4293140000    46.9095023271    R0
Au    14.6000000000    8.4293140000    46.9095023271    R0
Au    4.3800000000    0.8429310000    46.9095023271    R0
Au    8.7600000000    8.4293140000    46.9095023271    R0
Au    7.3000000000    0.8429310000    46.9095023271    R0
Au    11.6800000000    8.4293140000    46.9095023271    R0
Au    2.9200000000    3.3717260000    46.9095023271    R0
Au    11.6800000000    3.3717260000    46.9095023271    R0
Au    5.8400000000    3.3717260000    46.9095023271    R0
Au    8.7600000000    3.3717260000    46.9095023271    R0
Au    4.3800000000    5.9005200000    46.9095023271    R0
Au    13.1400000000    5.9005200000    46.9095023271    R0
Au    7.3000000000    5.9005200000    46.9095023271    R0
Au    10.2200000000    5.9005200000    46.9095023271    R0
Au    8.7600000000    1.6858630000    49.2936723271    R0
Au    13.1400000000    9.2722450000    49.2936723271    R0
Au    2.9200000000    1.6858630000    49.2936723271    R0
Au    11.6800000000    1.6858630000    49.2936723271    R0
Au    7.3000000000    9.2722450000    49.2936723271    R0
Au    16.0599990000    9.2722450000    49.2936723271    R0
Au    5.8400000000    1.6858630000    49.2936723271    R0
Au    10.2200000000    9.2722450000    49.2936723271    R0
Au    10.2200000000    4.2146570000    49.2936723271    R0
Au    4.3800000000    4.2146570000    49.2936723271    R0
Au    13.1400000000    4.2146570000    49.2936723271    R0
Au    7.3000000000    4.2146570000    49.2936723271    R0
Au    11.6800000000    6.7434510000    49.2936723271    R0
Au    5.8400000000    6.7434510000    49.2936723271    R0
Au    14.6000000000    6.7434510000    49.2936723271    R0
Au    8.7600000000    6.7434510000    49.2936723271    R0
Au    0.000000    0.000000    51.6778423991    R1
Au    8.760000    0.000000    51.6778423991    R1
Au    4.380000    7.586382    51.6778423991    R1
Au    13.140000    7.586382    51.6778423991    R1
Au    2.920000    0.000000    51.6778423991    R1
Au    7.300000    7.586382    51.6778423991    R1
Au    5.840000    0.000000    51.6778423991    R1
Au    10.220000    7.586382    51.6778423991    R1
Au    1.460000    2.528794    51.6778423991    R1
Au    10.220000    2.528794    51.6778423991    R1
Au    4.380000    2.528794    51.6778423991    R1
Au    7.300000    2.528794    51.6778423991    R1
Au    2.920000    5.057588    51.6778423991    R1
Au    11.680000    5.057588    51.6778423991    R1
Au    5.840000    5.057588    51.6778423991    R1
Au    8.760000    5.057588    51.6778423991    R1
Au    1.460000    0.842931    54.0620123991    R1
Au    10.220000    0.842931    54.0620123991    R1
Au    5.840000    8.429314    54.0620123991    R1
Au    14.600000    8.429314    54.0620123991    R1
Au    4.380000    0.842931    54.0620123991    R1
Au    8.760000    8.429314    54.0620123991    R1
Au    7.300000    0.842931    54.0620123991    R1
Au    11.680000    8.429314    54.0620123991    R1
Au    2.920000    3.371726    54.0620123991    R1
Au    11.680000    3.371726    54.0620123991    R1
Au    5.840000    3.371726    54.0620123991    R1
Au    8.760000    3.371726    54.0620123991    R1
Au    4.380000    5.900520    54.0620123991    R1
Au    13.140000    5.900520    54.0620123991    R1
Au    7.300000    5.900520    54.0620123991    R1
Au    10.220000    5.900520    54.0620123991    R1
Au    8.760000    1.685863    56.4461823991    R1
Au    13.140000    9.272245    56.4461823991    R1
Au    2.920000    1.685863    56.4461823991    R1
Au    11.680000    1.685863    56.4461823991    R1
Au    7.300000    9.272245    56.4461823991    R1
Au    16.059999    9.272245    56.4461823991    R1
Au    5.840000    1.685863    56.4461823991    R1
Au    10.220000    9.272245    56.4461823991    R1
Au    10.220000    4.214657    56.4461823991    R1
Au    4.380000    4.214657    56.4461823991    R1
Au    13.140000    4.214657    56.4461823991    R1
Au    7.300000    4.214657    56.4461823991    R1
Au    11.680000    6.743451    56.4461823991    R1
Au    5.840000    6.743451    56.4461823991    R1
Au    14.600000    6.743451    56.4461823991    R1
Au    8.760000    6.743451    56.4461823991    R1
Au    0.000000    0.000000    58.8303513991    R2
Au    8.760000    0.000000    58.8303513991    R2
Au    4.380000    7.586382    58.8303513991    R2
Au    13.140000    7.586382    58.8303513991    R2
Au    2.920000    0.000000    58.8303513991    R2
Au    7.300000    7.586382    58.8303513991    R2
Au    5.840000    0.000000    58.8303513991    R2
Au    10.220000    7.586382    58.8303513991    R2
Au    1.460000    2.528794    58.8303513991    R2
Au    10.220000    2.528794    58.8303513991    R2
Au    4.380000    2.528794    58.8303513991    R2
Au    7.300000    2.528794    58.8303513991    R2
Au    2.920000    5.057588    58.8303513991    R2
Au    11.680000    5.057588    58.8303513991    R2
Au    5.840000    5.057588    58.8303513991    R2
Au    8.760000    5.057588    58.8303513991    R2
Au    1.460000    0.842931    61.214522399100005    R2
Au    10.220000    0.842931    61.214522399100005    R2
Au    5.840000    8.429314    61.214522399100005    R2
Au    14.600000    8.429314    61.214522399100005    R2
Au    4.380000    0.842931    61.214522399100005    R2
Au    8.760000    8.429314    61.214522399100005    R2
Au    7.300000    0.842931    61.214522399100005    R2
Au    11.680000    8.429314    61.214522399100005    R2
Au    2.920000    3.371726    61.214522399100005    R2
Au    11.680000    3.371726    61.214522399100005    R2
Au    5.840000    3.371726    61.214522399100005    R2
Au    8.760000    3.371726    61.214522399100005    R2
Au    4.380000    5.900520    61.214522399100005    R2
Au    13.140000    5.900520    61.214522399100005    R2
Au    7.300000    5.900520    61.214522399100005    R2
Au    10.220000    5.900520    61.214522399100005    R2
Au    8.760000    1.685863    63.5986923991    R2
Au    13.140000    9.272245    63.5986923991    R2
Au    2.920000    1.685863    63.5986923991    R2
Au    11.680000    1.685863    63.5986923991    R2
Au    7.300000    9.272245    63.5986923991    R2
Au    16.059999    9.272245    63.5986923991    R2
Au    5.840000    1.685863    63.5986923991    R2
Au    10.220000    9.272245    63.5986923991    R2
Au    10.220000    4.214657    63.5986923991    R2
Au    4.380000    4.214657    63.5986923991    R2
Au    13.140000    4.214657    63.5986923991    R2
Au    7.300000    4.214657    63.5986923991    R2
Au    11.680000    6.743451    63.5986923991    R2
Au    5.840000    6.743451    63.5986923991    R2
Au    14.600000    6.743451    63.5986923991    R2
Au    8.760000    6.743451    63.5986923991    R2
Au    0.000000    0.000000    65.9828613991    R3
Au    8.760000    0.000000    65.9828613991    R3
Au    4.380000    7.586382    65.9828613991    R3
Au    13.140000    7.586382    65.9828613991    R3
Au    2.920000    0.000000    65.9828613991    R3
Au    7.300000    7.586382    65.9828613991    R3
Au    5.840000    0.000000    65.9828613991    R3
Au    10.220000    7.586382    65.9828613991    R3
Au    1.460000    2.528794    65.9828613991    R3
Au    10.220000    2.528794    65.9828613991    R3
Au    4.380000    2.528794    65.9828613991    R3
Au    7.300000    2.528794    65.9828613991    R3
Au    2.920000    5.057588    65.9828613991    R3
Au    11.680000    5.057588    65.9828613991    R3
Au    5.840000    5.057588    65.9828613991    R3
Au    8.760000    5.057588    65.9828613991    R3
Au    1.460000    0.842931    68.3670323991    R3
Au    10.220000    0.842931    68.3670323991    R3
Au    5.840000    8.429314    68.3670323991    R3
Au    14.600000    8.429314    68.3670323991    R3
Au    4.380000    0.842931    68.3670323991    R3
Au    8.760000    8.429314    68.3670323991    R3
Au    7.300000    0.842931    68.3670323991    R3
Au    11.680000    8.429314    68.3670323991    R3
Au    2.920000    3.371726    68.3670323991    R3
Au    11.680000    3.371726    68.3670323991    R3
Au    5.840000    3.371726    68.3670323991    R3
Au    8.760000    3.371726    68.3670323991    R3
Au    4.380000    5.900520    68.3670323991    R3
Au    13.140000    5.900520    68.3670323991    R3
Au    7.300000    5.900520    68.3670323991    R3
Au    10.220000    5.900520    68.3670323991    R3
Au    8.760000    1.685863    70.75120239910001    R3
Au    13.140000    9.272245    70.75120239910001    R3
Au    2.920000    1.685863    70.75120239910001    R3
Au    11.680000    1.685863    70.75120239910001    R3
Au    7.300000    9.272245    70.75120239910001    R3
Au    16.059999    9.272245    70.75120239910001    R3
Au    5.840000    1.685863    70.75120239910001    R3
Au    10.220000    9.272245    70.75120239910001    R3
Au    10.220000    4.214657    70.75120239910001    R3
Au    4.380000    4.214657    70.75120239910001    R3
Au    13.140000    4.214657    70.75120239910001    R3
Au    7.300000    4.214657    70.75120239910001    R3
Au    11.680000    6.743451    70.75120239910001    R3
Au    5.840000    6.743451    70.75120239910001    R3
Au    14.600000    6.743451    70.75120239910001    R3
Au    8.760000    6.743451    70.75120239910001    R3
