     190
 i =      239, E =     -5120.1150001373
 Au         0.0000000000        0.0000000000       -0.4277407825
 Au         8.7600000000        0.0000000000       -0.3742328401
 Au         4.3800000000        7.5863820000       -0.4001144539
 Au        13.1400000000        7.5863820000       -0.3565372546
 Au         2.9200000000        0.0000000000       -0.3940214541
 Au        11.6800000000        0.0000000000       -0.4107916193
 Au         7.3000000000        7.5863820000       -0.3470607741
 Au        16.0599990000        7.5863820000       -0.4105594296
 Au         5.8400000000        0.0000000000       -0.3897444793
 Au        10.2200000000        7.5863820000       -0.2823044649
 Au         1.4600000000        2.5287940000       -0.4605871496
 Au        10.2200000000        2.5287940000       -0.3554902654
 Au         5.8400000000       10.1151760000       -0.3997518271
 Au        14.6000000000       10.1151760000       -0.3736362563
 Au         4.3800000000        2.5287940000       -0.3950998077
 Au        13.1400000000        2.5287940000       -0.4635690909
 Au         8.7600000000       10.1151760000       -0.3507423178
 Au        17.5200000000       10.1151760000       -0.4057095618
 Au         7.3000000000        2.5287940000       -0.3023585040
 Au        11.6800000000       10.1151760000       -0.2997753617
 Au         2.9200000000        5.0575880000       -0.4288366863
 Au        11.6800000000        5.0575880000       -0.3948655960
 Au         5.8400000000        5.0575880000       -0.3526209923
 Au        14.6000000000        5.0575880000       -0.4641655434
 Au         8.7600000000        5.0575880000       -0.2823475026
 Au         1.4600000000        0.8429310000        2.1991874840
 Au        10.2200000000        0.8429310000        2.2379171413
 Au         5.8400000000        8.4293140000        2.2393976704
 Au        14.6000000000        8.4293140000        2.2379478688
 Au         4.3800000000        0.8429310000        2.2335231037
 Au        13.1400000000        0.8429310000        2.1847974312
 Au         8.7600000000        8.4293140000        2.2858619312
 Au        17.5200000000        8.4293140000        2.2163998908
 Au         7.3000000000        0.8429310000        2.2612652621
 Au        11.6800000000        8.4293140000        2.3915154480
 Au         2.9200000000        3.3717260000        2.1982537145
 Au        11.6800000000        3.3717260000        2.1859930072
 Au         7.3000000000       10.9581080000        2.2321190342
 Au        16.0599990000       10.9581080000        2.2397115985
 Au         5.8400000000        3.3717260000        2.2673306533
 Au        14.6000000000        3.3717260000        2.1091752980
 Au        10.2200000000       10.9581080000        2.2692118708
 Au        18.9800000000       10.9581080000        2.2162361835
 Au         8.7600000000        3.3717260000        2.3900205920
 Au        13.1400000000       10.9581080000        2.2621374010
 Au         4.3800000000        5.9005200000        2.2310582314
 Au        13.1400000000        5.9005200000        2.1842976094
 Au         7.3000000000        5.9005200000        2.2850858305
 Au        16.0599990000        5.9005200000        2.1840527681
 Au        10.2200000000        5.9005200000        2.3438103690
 Au         8.7600000000        1.6858630000        4.9116498135
 Au        13.1400000000        9.2722450000        4.9131063501
 Au         2.9200000000        1.6858630000        4.8357575523
 Au        11.6800000000        1.6858630000        4.7959826225
 Au         7.3000000000        9.2722450000        4.8774196813
 Au        16.0599990000        9.2722450000        4.8579933353
 Au         5.8400000000        1.6858630000        4.8806612127
 Au        14.6000000000        1.6858630000        4.7890786827
 Au        10.2200000000        9.2722450000        4.9377426411
 Au        18.9800000000        9.2722450000        4.8429843727
 Au        10.2200000000        4.2146570000        5.0357336904
 Au        14.6000000000       11.8010400000        4.8769123399
 Au         4.3800000000        4.2146570000        4.8586861733
 Au        13.1400000000        4.2146570000        4.6034257133
 Au         8.7600000000       11.8010400000        4.8605872982
 Au        17.5200000000       11.8010400000        4.8573184934
 Au         7.3000000000        4.2146570000        4.9354124222
 Au        16.0599990000        4.2146570000        4.7880929348
 Au        11.6800000000       11.8010400000        4.8823738792
 Au        20.4400010000       11.8010400000        4.8342443737
 Au        11.6800000000        6.7434510000        5.0261975396
 Au         5.8400000000        6.7434510000        4.8765496139
 Au        14.6000000000        6.7434510000        4.7939068655
 Au         8.7600000000        6.7434510000        4.8640726597
 Au        17.5200000000        6.7434510000        4.8340185187
  C        11.2973203845        5.4024240879       22.0902888419
  C        12.1374733789        6.3543985052       21.4847392301
  C        12.5383796057        6.1763092523       20.1631857225
  C        12.1281219938        5.0569203033       19.4192450610
  C        10.9621053167        4.2266413546       21.3948207426
  C        11.3743902637        4.0679003628       20.0742885800
  C         9.6199299174        6.4101139688       10.9859266558
  H        13.1591222182        6.9391493633       19.6884038627
  S        10.3727195601        5.8523100642       23.5251327222
  H        10.3436943726        3.4700486038       21.8778746985
  H        11.0785896139        3.1689991089       19.5292654973
  H        12.4299749039        7.2469514518       22.0379730203
  C        10.3880528369        7.3287537892       10.2504189524
  C        10.8379988668        7.0322256312        8.9662569131
  C        10.5261474319        5.7874209230        8.3908433633
  C         9.6691024508        4.9021385073        9.0693422572
  C         9.2298246849        5.2179220851       10.3522189972
  H        11.4687265134        7.7361056073        8.4230140834
  H        10.6682462824        8.2812383745       10.7053324205
  H         9.3931942113        3.9547079893        8.6061254758
  H         8.5972081690        4.5067771399       10.8878515897
  S        11.4807219596        5.1879040988        7.0319675036
  C        12.3889745497        4.9731054300       17.9372489720
  C         9.3401902551        6.6303549964       12.4508378368
  C        10.4783390884        6.0316031476       13.3070295988
  C        11.2387182327        5.6179853864       17.1318411265
  H        13.3350935777        5.4794555749       17.6894148195
  H        12.4981854894        3.9203873197       17.6319069230
  H         8.3849863239        6.1591681425       12.7308178981
  H         9.2449787619        7.7063329606       12.6651564791
  C        11.4320038643        5.5387234425       15.6156832193
  H        11.1341968167        6.6713300928       17.4406083003
  H        10.2918721191        5.1263046568       17.4101272566
  C        10.2782910011        6.1623834109       14.8189112749
  H         9.3295544847        5.6789886927       15.1091294155
  H        10.1745322045        7.2266475494       15.0912384323
  H        12.3770586045        6.0365945852       15.3381584023
  H        11.5475296873        4.4823332485       15.3172984058
  H        11.4273614151        6.5123694573       13.0173647223
  H        10.5904473137        4.9664960001       13.0448161630
 Au         8.7600020000        1.6858630000       25.6717099710
 Au        13.1400000000        9.2722460000       25.6770554245
 Au         2.9200000000        1.6858630000       25.7164575110
 Au        11.6800000000        1.6858630000       25.6547834219
 Au         7.3000000000        9.2722460000       25.7568576000
 Au        16.0599990000        9.2722460000       25.6871618576
 Au         5.8400010000        1.6858630000       25.7073051679
 Au        14.6000000000        1.6858630000       25.6937536442
 Au        10.2200000000        9.2722460000       25.7329067395
 Au        18.9800000000        9.2722460000       25.7226578929
 Au        10.2200010000        4.2146570000       25.4898399289
 Au        14.6000000000       11.8010400000       25.6981559646
 Au         4.3800000000        4.2146570000       25.7231693858
 Au        13.1400000000        4.2146570000       25.6649211896
 Au         8.7600000000       11.8010400000       25.7237603636
 Au        17.5200000000       11.8010400000       25.6878672535
 Au         7.3000000000        4.2146570000       25.7246590221
 Au        16.0599990000        4.2146570000       25.6935235574
 Au        11.6800000000       11.8010400000       25.7080116618
 Au        20.4400010000       11.8010400000       25.7078107536
 Au        11.6800000000        6.7434510000       25.5314499328
 Au         5.8400000000        6.7434510000       25.7556311689
 Au        14.6000000000        6.7434510000       25.6564776603
 Au         8.7600000000        6.7434510000       25.9580881760
 Au        17.5200000000        6.7434510000       25.7058743996
 Au         1.4600000000        0.8429310000       28.3393490146
 Au        10.2200000000        0.8429310000       28.2879007200
 Au         5.8400010000        8.4293140000       28.3739185441
 Au        14.6000000000        8.4293140000       28.2905628756
 Au         4.3800000000        0.8429310000       28.3393323218
 Au        13.1400010000        0.8429310000       28.3071543458
 Au         8.7600000000        8.4293140000       28.4207057618
 Au        17.5200000000        8.4293140000       28.3318279234
 Au         7.3000010000        0.8429310000       28.3207275354
 Au        11.6800000000        8.4293140000       28.2405495220
 Au         2.9200000000        3.3717260000       28.3390074846
 Au        11.6800010000        3.3717260000       28.2074594416
 Au         7.3000000000       10.9581090000       28.3570801043
 Au        16.0599980000       10.9581090000       28.3179719008
 Au         5.8400000000        3.3717260000       28.3395582175
 Au        14.6000000000        3.3717260000       28.2970111390
 Au        10.2200000000       10.9581090000       28.3418410402
 Au        18.9800000000       10.9581090000       28.3329277747
 Au         8.7600000000        3.3717260000       28.2292409767
 Au        13.1399990000       10.9581090000       28.3221566129
 Au         4.3800000000        5.9005200000       28.3559210338
 Au        13.1400000000        5.9005200000       28.2126789721
 Au         7.3000000000        5.9005200000       28.4181688051
 Au        16.0599990000        5.9005200000       28.3063038075
 Au        10.2200000000        5.9005200000       28.3368888707
 Au         0.0000000000        0.0000000000       30.9657681000
 Au         8.7600000000        0.0000000000       30.9342779111
 Au         4.3800000000        7.5863820000       30.9831370425
 Au        13.1399990000        7.5863820000       30.8637284300
 Au         2.9200000000        0.0000000000       30.9669952228
 Au        11.6800000000        0.0000000000       30.9284935993
 Au         7.3000000000        7.5863820000       31.0291513373
 Au        16.0599990000        7.5863820000       30.9275236347
 Au         5.8400000000        0.0000000000       30.9626271421
 Au        10.2200000000        7.5863820000       30.9685150422
 Au         1.4600000000        2.5287940000       30.9526570491
 Au        10.2200000000        2.5287940000       30.8552375988
 Au         5.8400000000       10.1151760000       30.9837379353
 Au        14.6000000000       10.1151760000       30.9346514390
 Au         4.3800000000        2.5287940000       30.9657453717
 Au        13.1400000000        2.5287940000       30.8820030393
 Au         8.7600000000       10.1151760000       30.9923612110
 Au        17.5200000000       10.1151760000       30.9577474761
 Au         7.3000000000        2.5287940000       30.9125454074
 Au        11.6800000000       10.1151760000       30.9156318692
 Au         2.9200000000        5.0575880000       30.9645407142
 Au        11.6800000000        5.0575880000       30.8696599260
 Au         5.8400000000        5.0575880000       30.9908826529
 Au        14.6000000000        5.0575880000       30.8816860948
 Au         8.7600000000        5.0575880000       30.9623364537
