 420
 i =       82, E =     -3365.3998523447
Au     0.000000     0.000000     0.000000     L3
Au     8.760000     0.000000     0.000000     L3
Au     4.380000     7.586382     0.000000     L3
Au     13.140000     7.586382     0.000000     L3
Au     2.920000     0.000000     0.000000     L3
Au     11.680000     0.000000     0.000000     L3
Au     7.300000     7.586382     0.000000     L3
Au     16.059999     7.586382     0.000000     L3
Au     5.840000     0.000000     0.000000     L3
Au     10.220000     7.586382     0.000000     L3
Au     1.460000     2.528794     0.000000     L3
Au     10.220000     2.528794     0.000000     L3
Au     5.840000     10.115176     0.000000     L3
Au     14.600000     10.115176     0.000000     L3
Au     4.380000     2.528794     0.000000     L3
Au     13.140000     2.528794     0.000000     L3
Au     8.760000     10.115176     0.000000     L3
Au     17.520000     10.115176     0.000000     L3
Au     7.300000     2.528794     0.000000     L3
Au     11.680000     10.115176     0.000000     L3
Au     2.920000     5.057588     0.000000     L3
Au     11.680000     5.057588     0.000000     L3
Au     5.840000     5.057588     0.000000     L3
Au     14.600000     5.057588     0.000000     L3
Au     8.760000     5.057588     0.000000     L3
Au     1.460000     0.842931     2.384170     L3
Au     10.220000     0.842931     2.384170     L3
Au     5.840000     8.429314     2.384170     L3
Au     14.600000     8.429314     2.384170     L3
Au     4.380000     0.842931     2.384170     L3
Au     13.140000     0.842931     2.384170     L3
Au     8.760000     8.429314     2.384170     L3
Au     17.520000     8.429314     2.384170     L3
Au     7.300000     0.842931     2.384170     L3
Au     11.680000     8.429314     2.384170     L3
Au     2.920000     3.371726     2.384170     L3
Au     11.680000     3.371726     2.384170     L3
Au     7.300000     10.958108     2.384170     L3
Au     16.059999     10.958108     2.384170     L3
Au     5.840000     3.371726     2.384170     L3
Au     14.600000     3.371726     2.384170     L3
Au     10.220000     10.958108     2.384170     L3
Au     18.980000     10.958108     2.384170     L3
Au     8.760000     3.371726     2.384170     L3
Au     13.140000     10.958108     2.384170     L3
Au     4.380000     5.900520     2.384170     L3
Au     13.140000     5.900520     2.384170     L3
Au     7.300000     5.900520     2.384170     L3
Au     16.059999     5.900520     2.384170     L3
Au     10.220000     5.900520     2.384170     L3
Au     8.760000     1.685863     4.768340     L3
Au     13.140000     9.272245     4.768340     L3
Au     2.920000     1.685863     4.768340     L3
Au     11.680000     1.685863     4.768340     L3
Au     7.300000     9.272245     4.768340     L3
Au     16.059999     9.272245     4.768340     L3
Au     5.840000     1.685863     4.768340     L3
Au     14.600000     1.685863     4.768340     L3
Au     10.220000     9.272245     4.768340     L3
Au     18.980000     9.272245     4.768340     L3
Au     10.220000     4.214657     4.768340     L3
Au     14.600000     11.801040     4.768340     L3
Au     4.380000     4.214657     4.768340     L3
Au     13.140000     4.214657     4.768340     L3
Au     8.760000     11.801040     4.768340     L3
Au     17.520000     11.801040     4.768340     L3
Au     7.300000     4.214657     4.768340     L3
Au     16.059999     4.214657     4.768340     L3
Au     11.680000     11.801040     4.768340     L3
Au     20.440001     11.801040     4.768340     L3
Au     11.680000     6.743451     4.768340     L3
Au     5.840000     6.743451     4.768340     L3
Au     14.600000     6.743451     4.768340     L3
Au     8.760000     6.743451     4.768340     L3
Au     17.520000     6.743451     4.768340     L3
Au     0.000000     0.000000     7.152510     L2
Au     8.760000     0.000000     7.152510     L2
Au     4.380000     7.586382     7.152510     L2
Au     13.140000     7.586382     7.152510     L2
Au     2.920000     0.000000     7.152510     L2
Au     11.680000     0.000000     7.152510     L2
Au     7.300000     7.586382     7.152510     L2
Au     16.059999     7.586382     7.152510     L2
Au     5.840000     0.000000     7.152510     L2
Au     10.220000     7.586382     7.152510     L2
Au     1.460000     2.528794     7.152510     L2
Au     10.220000     2.528794     7.152510     L2
Au     5.840000     10.115176     7.152510     L2
Au     14.600000     10.115176     7.152510     L2
Au     4.380000     2.528794     7.152510     L2
Au     13.140000     2.528794     7.152510     L2
Au     8.760000     10.115176     7.152510     L2
Au     17.520000     10.115176     7.152510     L2
Au     7.300000     2.528794     7.152510     L2
Au     11.680000     10.115176     7.152510     L2
Au     2.920000     5.057588     7.152510     L2
Au     11.680000     5.057588     7.152510     L2
Au     5.840000     5.057588     7.152510     L2
Au     14.600000     5.057588     7.152510     L2
Au     8.760000     5.057588     7.152510     L2
Au     1.460000     0.842931     9.536680     L2
Au     10.220000     0.842931     9.536680     L2
Au     5.840000     8.429314     9.536680     L2
Au     14.600000     8.429314     9.536680     L2
Au     4.380000     0.842931     9.536680     L2
Au     13.140000     0.842931     9.536680     L2
Au     8.760000     8.429314     9.536680     L2
Au     17.520000     8.429314     9.536680     L2
Au     7.300000     0.842931     9.536680     L2
Au     11.680000     8.429314     9.536680     L2
Au     2.920000     3.371726     9.536680     L2
Au     11.680000     3.371726     9.536680     L2
Au     7.300000     10.958108     9.536680     L2
Au     16.059999     10.958108     9.536680     L2
Au     5.840000     3.371726     9.536680     L2
Au     14.600000     3.371726     9.536680     L2
Au     10.220000     10.958108     9.536680     L2
Au     18.980000     10.958108     9.536680     L2
Au     8.760000     3.371726     9.536680     L2
Au     13.140000     10.958108     9.536680     L2
Au     4.380000     5.900520     9.536680     L2
Au     13.140000     5.900520     9.536680     L2
Au     7.300000     5.900520     9.536680     L2
Au     16.059999     5.900520     9.536680     L2
Au     10.220000     5.900520     9.536680     L2
Au     8.760000     1.685863     11.920850     L2
Au     13.140000     9.272245     11.920850     L2
Au     2.920000     1.685863     11.920850     L2
Au     11.680000     1.685863     11.920850     L2
Au     7.300000     9.272245     11.920850     L2
Au     16.059999     9.272245     11.920850     L2
Au     5.840000     1.685863     11.920850     L2
Au     14.600000     1.685863     11.920850     L2
Au     10.220000     9.272245     11.920850     L2
Au     18.980000     9.272245     11.920850     L2
Au     10.220000     4.214657     11.920850     L2
Au     14.600000     11.801040     11.920850     L2
Au     4.380000     4.214657     11.920850     L2
Au     13.140000     4.214657     11.920850     L2
Au     8.760000     11.801040     11.920850     L2
Au     17.520000     11.801040     11.920850     L2
Au     7.300000     4.214657     11.920850     L2
Au     16.059999     4.214657     11.920850     L2
Au     11.680000     11.801040     11.920850     L2
Au     20.440001     11.801040     11.920850     L2
Au     11.680000     6.743451     11.920850     L2
Au     5.840000     6.743451     11.920850     L2
Au     14.600000     6.743451     11.920850     L2
Au     8.760000     6.743451     11.920850     L2
Au     17.520000     6.743451     11.920850     L2
Au     0.000000     0.000000     14.305019     L1
Au     8.760000     0.000000     14.305019     L1
Au     4.380000     7.586382     14.305019     L1
Au     13.140000     7.586382     14.305019     L1
Au     2.920000     0.000000     14.305019     L1
Au     11.680000     0.000000     14.305019     L1
Au     7.300000     7.586382     14.305019     L1
Au     16.059999     7.586382     14.305019     L1
Au     5.840000     0.000000     14.305019     L1
Au     10.220000     7.586382     14.305019     L1
Au     1.460000     2.528794     14.305019     L1
Au     10.220000     2.528794     14.305019     L1
Au     5.840000     10.115176     14.305019     L1
Au     14.600000     10.115176     14.305019     L1
Au     4.380000     2.528794     14.305019     L1
Au     13.140000     2.528794     14.305019     L1
Au     8.760000     10.115176     14.305019     L1
Au     17.520000     10.115176     14.305019     L1
Au     7.300000     2.528794     14.305019     L1
Au     11.680000     10.115176     14.305019     L1
Au     2.920000     5.057588     14.305019     L1
Au     11.680000     5.057588     14.305019     L1
Au     5.840000     5.057588     14.305019     L1
Au     14.600000     5.057588     14.305019     L1
Au     8.760000     5.057588     14.305019     L1
Au     1.460000     0.842931     16.689190     L1
Au     10.220000     0.842931     16.689190     L1
Au     5.840000     8.429314     16.689190     L1
Au     14.600000     8.429314     16.689190     L1
Au     4.380000     0.842931     16.689190     L1
Au     13.140000     0.842931     16.689190     L1
Au     8.760000     8.429314     16.689190     L1
Au     17.520000     8.429314     16.689190     L1
Au     7.300000     0.842931     16.689190     L1
Au     11.680000     8.429314     16.689190     L1
Au     2.920000     3.371726     16.689190     L1
Au     11.680000     3.371726     16.689190     L1
Au     7.300000     10.958108     16.689190     L1
Au     16.059999     10.958108     16.689190     L1
Au     5.840000     3.371726     16.689190     L1
Au     14.600000     3.371726     16.689190     L1
Au     10.220000     10.958108     16.689190     L1
Au     18.980000     10.958108     16.689190     L1
Au     8.760000     3.371726     16.689190     L1
Au     13.140000     10.958108     16.689190     L1
Au     4.380000     5.900520     16.689190     L1
Au     13.140000     5.900520     16.689190     L1
Au     7.300000     5.900520     16.689190     L1
Au     16.059999     5.900520     16.689190     L1
Au     10.220000     5.900520     16.689190     L1
Au     8.760000     1.685863     19.073360     L1
Au     13.140000     9.272245     19.073360     L1
Au     2.920000     1.685863     19.073360     L1
Au     11.680000     1.685863     19.073360     L1
Au     7.300000     9.272245     19.073360     L1
Au     16.059999     9.272245     19.073360     L1
Au     5.840000     1.685863     19.073360     L1
Au     14.600000     1.685863     19.073360     L1
Au     10.220000     9.272245     19.073360     L1
Au     18.980000     9.272245     19.073360     L1
Au     10.220000     4.214657     19.073360     L1
Au     14.600000     11.801040     19.073360     L1
Au     4.380000     4.214657     19.073360     L1
Au     13.140000     4.214657     19.073360     L1
Au     8.760000     11.801040     19.073360     L1
Au     17.520000     11.801040     19.073360     L1
Au     7.300000     4.214657     19.073360     L1
Au     16.059999     4.214657     19.073360     L1
Au     11.680000     11.801040     19.073360     L1
Au     20.440001     11.801040     19.073360     L1
Au     11.680000     6.743451     19.073360     L1
Au     5.840000     6.743451     19.073360     L1
Au     14.600000     6.743451     19.073360     L1
Au     8.760000     6.743451     19.073360     L1
Au     17.520000     6.743451     19.073360     L1
Au    0.0000000000    0.0000000000    21.0297892815    L0
Au    8.7600000000    0.0000000000    21.0832972239    L0
Au    4.3800000000    7.5863820000    21.0574156101    L0
Au    13.1400000000    7.5863820000    21.1009928094    L0
Au    2.9200000000    0.0000000000    21.0635086099    L0
Au    11.6800000000    0.0000000000    21.0467384447    L0
Au    7.3000000000    7.5863820000    21.1104692899    L0
Au    16.0599990000    7.5863820000    21.0469706344    L0
Au    5.8400000000    0.0000000000    21.0677855847    L0
Au    10.2200000000    7.5863820000    21.1752255991    L0
Au    1.4600000000    2.5287940000    20.9969429144    L0
Au    10.2200000000    2.5287940000    21.1020397986    L0
Au    5.8400000000    10.1151760000    21.0577782369    L0
Au    14.6000000000    10.1151760000    21.0838938077    L0
Au    4.3800000000    2.5287940000    21.0624302563    L0
Au    13.1400000000    2.5287940000    20.993960973100002    L0
Au    8.7600000000    10.1151760000    21.1067877462    L0
Au    17.5200000000    10.1151760000    21.051820502200002    L0
Au    7.3000000000    2.5287940000    21.15517156    L0
Au    11.6800000000    10.1151760000    21.1577547023    L0
Au    2.9200000000    5.0575880000    21.0286933777    L0
Au    11.6800000000    5.0575880000    21.062664468    L0
Au    5.8400000000    5.0575880000    21.1049090717    L0
Au    14.6000000000    5.0575880000    20.9933645206    L0
Au    8.7600000000    5.0575880000    21.1751825614    L0
Au    1.4600000000    0.8429310000    23.656717548    L0
Au    10.2200000000    0.8429310000    23.6954472053    L0
Au    5.8400000000    8.4293140000    23.6969277344    L0
Au    14.6000000000    8.4293140000    23.6954779328    L0
Au    4.3800000000    0.8429310000    23.6910531677    L0
Au    13.1400000000    0.8429310000    23.6423274952    L0
Au    8.7600000000    8.4293140000    23.7433919952    L0
Au    17.5200000000    8.4293140000    23.673929954800002    L0
Au    7.3000000000    0.8429310000    23.7187953261    L0
Au    11.6800000000    8.4293140000    23.849045512    L0
Au    2.9200000000    3.3717260000    23.655783778500002    L0
Au    11.6800000000    3.3717260000    23.6435230712    L0
Au    7.3000000000    10.9581080000    23.6896490982    L0
Au    16.0599990000    10.9581080000    23.6972416625    L0
Au    5.8400000000    3.3717260000    23.7248607173    L0
Au    14.6000000000    3.3717260000    23.566705362    L0
Au    10.2200000000    10.9581080000    23.7267419348    L0
Au    18.9800000000    10.9581080000    23.6737662475    L0
Au    8.7600000000    3.3717260000    23.847550656    L0
Au    13.1400000000    10.9581080000    23.719667465    L0
Au    4.3800000000    5.9005200000    23.6885882954    L0
Au    13.1400000000    5.9005200000    23.6418276734    L0
Au    7.3000000000    5.9005200000    23.7426158945    L0
Au    16.0599990000    5.9005200000    23.6415828321    L0
Au    10.2200000000    5.9005200000    23.801340433    L0
Au    8.7600000000    1.6858630000    26.369179877500002    L0
Au    13.1400000000    9.2722450000    26.370636414099998    L0
Au    2.9200000000    1.6858630000    26.2932876163    L0
Au    11.6800000000    1.6858630000    26.253512686500002    L0
Au    7.3000000000    9.2722450000    26.3349497453    L0
Au    16.0599990000    9.2722450000    26.315523399299998    L0
Au    5.8400000000    1.6858630000    26.3381912767    L0
Au    14.6000000000    1.6858630000    26.246608746699998    L0
Au    10.2200000000    9.2722450000    26.3952727051    L0
Au    18.9800000000    9.2722450000    26.3005144367    L0
Au    10.2200000000    4.2146570000    26.4932637544    L0
Au    14.6000000000    11.8010400000    26.3344424039    L0
Au    4.3800000000    4.2146570000    26.3162162373    L0
Au    13.1400000000    4.2146570000    26.060955777300002    L0
Au    8.7600000000    11.8010400000    26.3181173622    L0
Au    17.5200000000    11.8010400000    26.3148485574    L0
Au    7.3000000000    4.2146570000    26.3929424862    L0
Au    16.0599990000    4.2146570000    26.245622998800002    L0
Au    11.6800000000    11.8010400000    26.3399039432    L0
Au    20.4400010000    11.8010400000    26.2917744377    L0
Au    11.6800000000    6.7434510000    26.483727603600002    L0
Au    5.8400000000    6.7434510000    26.3340796779    L0
Au    14.6000000000    6.7434510000    26.251436929500002    L0
Au    8.7600000000    6.7434510000    26.3216027237    L0
Au    17.5200000000    6.7434510000    26.2915485827    L0
C    12.623924486028022    7.328848589033944    36.96309171819062    S1
N    12.509173748057199    6.86058854063312    35.89858878112901    S1
H    12.729979006833695    7.762660858439222    37.946053708904465    S1
C    10.096133287609087    5.027058739079423    43.42409099124367    S
C    10.650938938854148    3.744696470960468    43.24823735703229    S
C    10.490691615905604    3.071802659780724    42.03252263529333    S
C    9.776952743684332    3.6455656992615983    40.963188402478366    S
C    9.366479324381544    5.6080618432757365    42.37161875315586    S
C    9.213419947797567    4.919083530210844    41.16310319047659    S
C    12.775061187085557    3.8689398300344027    32.72539841310568    S
H    10.932610459484637    2.0756009615833406    41.91241164752194    S
S    10.37272095781471    5.85231469951856    44.98267247969845    S
H    8.916985821291622    6.599886683718257    42.49207508494095    S
H    8.642951135550716    5.387077725426267    40.35184660379681    S
H    11.20771519384786    3.2721917560442075    44.06435193104202    S
C    12.779927621614165    2.941566709066124    31.669444896896504    S
C    12.399040620102593    3.3091424359062582    30.371990714201996    S
C    12.00073275590383    4.630769935204759    30.10468150424205    S
C    12.001585375319356    5.5742632936277    31.150037218868384    S
C    12.383275651564947    5.1921009283824695    32.438681554870655    S
H    12.41254435784963    2.56275875446552    29.57008853646719    S
H    13.086086495654078    1.9061603015492712    31.861410007863725    S
H    11.702977689143612    6.609638320158623    30.953637734994675    S
H    12.375526050758202    5.933667520059057    33.24624907595574    S
S    11.4807219596    5.1879040988    28.489497567600004    S
C    9.692479238149838    2.966740863603202    39.61427356460532    S
C    13.103920837945484    3.47011028315753    34.1470432151854    S
C    11.83383424796362    3.158182197787472    34.968495534817286    S
C    10.959734874216805    3.216678428778324    38.76734366120077    S
H    9.538904221450586    1.877702410456418    39.734810957672714    S
H    8.812016660457104    3.3491765334657413    39.063825680230735    S
H    13.643848386801523    4.298967183254324    34.64228114375938    S
H    13.78066414309294    2.595091371635701    34.157352347750745    S
C    10.814427624036881    2.8110370036616867    37.29566489852004    S
H    11.818073971484505    2.691435173839894    39.2300039818566    S
H    11.206374937948112    4.295648956919121    38.813003143471015    S
C    12.090190875808778    3.0726426187263676    36.47764177635782    S
H    12.534762650816898    4.034156472850871    36.802450194107074    S
H    12.847242373273959    2.2946921351897633    36.699163437955264    S
H    10.521965856679921    1.7455860499829554    37.216766499718    S
H    9.977492175157462    3.3892515499637015    36.854909119195746    S
H    11.371460587437072    2.22340493674904    34.59579190820391    S
H    11.0943293850472    3.9608144394284426    34.784162227793416    S
Au    8.7600020000    1.6858630000    47.129240034999995    R0
Au    13.1400000000    9.2722460000    47.1345854885    R0
Au    2.9200000000    1.6858630000    47.173987575    R0
Au    11.6800000000    1.6858630000    47.1123134859    R0
Au    7.3000000000    9.2722460000    47.214387664    R0
Au    16.0599990000    9.2722460000    47.1446919216    R0
Au    5.8400010000    1.6858630000    47.1648352319    R0
Au    14.6000000000    1.6858630000    47.1512837082    R0
Au    10.2200000000    9.2722460000    47.1904368035    R0
Au    18.9800000000    9.2722460000    47.1801879569    R0
Au    10.2200010000    4.2146570000    46.9473699929    R0
Au    14.6000000000    11.8010400000    47.1556860286    R0
Au    4.3800000000    4.2146570000    47.1806994498    R0
Au    13.1400000000    4.2146570000    47.122451253600005    R0
Au    8.7600000000    11.8010400000    47.181290427600004    R0
Au    17.5200000000    11.8010400000    47.1453973175    R0
Au    7.3000000000    4.2146570000    47.182189086099996    R0
Au    16.0599990000    4.2146570000    47.151053621399996    R0
Au    11.6800000000    11.8010400000    47.1655417258    R0
Au    20.4400010000    11.8010400000    47.1653408176    R0
Au    11.6800000000    6.7434510000    46.9889799968    R0
Au    5.8400000000    6.7434510000    47.2131612329    R0
Au    14.6000000000    6.7434510000    47.114007724299995    R0
Au    8.7600000000    6.7434510000    47.41561824    R0
Au    17.5200000000    6.7434510000    47.1634044636    R0
Au    1.4600000000    0.8429310000    49.7968790786    R0
Au    10.2200000000    0.8429310000    49.745430784    R0
Au    5.8400010000    8.4293140000    49.831448608100004    R0
Au    14.6000000000    8.4293140000    49.7480929396    R0
Au    4.3800000000    0.8429310000    49.7968623858    R0
Au    13.1400010000    0.8429310000    49.7646844098    R0
Au    8.7600000000    8.4293140000    49.878235825800004    R0
Au    17.5200000000    8.4293140000    49.789357987399995    R0
Au    7.3000010000    0.8429310000    49.7782575994    R0
Au    11.6800000000    8.4293140000    49.698079586    R0
Au    2.9200000000    3.3717260000    49.7965375486    R0
Au    11.6800010000    3.3717260000    49.664989505600005    R0
Au    7.3000000000    10.9581090000    49.8146101683    R0
Au    16.0599980000    10.9581090000    49.7755019648    R0
Au    5.8400000000    3.3717260000    49.797088281499995    R0
Au    14.6000000000    3.3717260000    49.754541203    R0
Au    10.2200000000    10.9581090000    49.7993711042    R0
Au    18.9800000000    10.9581090000    49.7904578387    R0
Au    8.7600000000    3.3717260000    49.6867710407    R0
Au    13.1399990000    10.9581090000    49.7796866769    R0
Au    4.3800000000    5.9005200000    49.8134510978    R0
Au    13.1400000000    5.9005200000    49.670209036100005    R0
Au    7.3000000000    5.9005200000    49.8756988691    R0
Au    16.0599990000    5.9005200000    49.7638338715    R0
Au    10.2200000000    5.9005200000    49.794418934700005    R0
Au    0.0000000000    0.0000000000    52.423298164    R0
Au    8.7600000000    0.0000000000    52.3918079751    R0
Au    4.3800000000    7.5863820000    52.4406671065    R0
Au    13.1399990000    7.5863820000    52.321258494    R0
Au    2.9200000000    0.0000000000    52.424525286800005    R0
Au    11.6800000000    0.0000000000    52.3860236633    R0
Au    7.3000000000    7.5863820000    52.486681401300004    R0
Au    16.0599990000    7.5863820000    52.385053698700005    R0
Au    5.8400000000    0.0000000000    52.4201572061    R0
Au    10.2200000000    7.5863820000    52.4260451062    R0
Au    1.4600000000    2.5287940000    52.4101871131    R0
Au    10.2200000000    2.5287940000    52.3127676628    R0
Au    5.8400000000    10.1151760000    52.441267999299995    R0
Au    14.6000000000    10.1151760000    52.392181503    R0
Au    4.3800000000    2.5287940000    52.4232754357    R0
Au    13.1400000000    2.5287940000    52.3395331033    R0
Au    8.7600000000    10.1151760000    52.449891275    R0
Au    17.5200000000    10.1151760000    52.4152775401    R0
Au    7.3000000000    2.5287940000    52.3700754714    R0
Au    11.6800000000    10.1151760000    52.373161933199995    R0
Au    2.9200000000    5.0575880000    52.4220707782    R0
Au    11.6800000000    5.0575880000    52.32718999    R0
Au    5.8400000000    5.0575880000    52.4484127169    R0
Au    14.6000000000    5.0575880000    52.3392161588    R0
Au    8.7600000000    5.0575880000    52.4198665177    R0
Au    8.760002    1.685863   54.48397114000001 R1
Au   13.140000    9.272246   54.48397114000001 R1
Au    2.920000    1.685863   54.48397114000001 R1
Au   11.680000    1.685863   54.48397114000001 R1
Au    7.300000    9.272246   54.48397114000001 R1
Au   16.059999    9.272246   54.48397114000001 R1
Au    5.840001    1.685863   54.48397114000001 R1
Au   14.600000    1.685863   54.48397114000001 R1
Au   10.220000    9.272246   54.48397114000001 R1
Au   18.980000    9.272246   54.48397114000001 R1
Au   10.220001    4.214657   54.48397114000001 R1
Au   14.600000   11.801040   54.48397114000001 R1
Au    4.380000    4.214657   54.48397114000001 R1
Au   13.140000    4.214657   54.48397114000001 R1
Au    8.760000   11.801040   54.48397114000001 R1
Au   17.520000   11.801040   54.48397114000001 R1
Au    7.300000    4.214657   54.48397114000001 R1
Au   16.059999    4.214657   54.48397114000001 R1
Au   11.680000   11.801040   54.48397114000001 R1
Au   20.440001   11.801040   54.48397114000001 R1
Au   11.680000    6.743451   54.48397114000001 R1
Au    5.840000    6.743451   54.48397114000001 R1
Au   14.600000    6.743451   54.48397114000001 R1
Au    8.760000    6.743451   54.48397114000001 R1
Au   17.520000    6.743451   54.48397114000001 R1
Au    1.460000    0.842931   56.868141140000006 R1
Au   10.220000    0.842931   56.868141140000006 R1
Au    5.840001    8.429314   56.868141140000006 R1
Au   14.600000    8.429314   56.868141140000006 R1
Au    4.380000    0.842931   56.868141140000006 R1
Au   13.140001    0.842931   56.868141140000006 R1
Au    8.760000    8.429314   56.868141140000006 R1
Au   17.520000    8.429314   56.868141140000006 R1
Au    7.300001    0.842931   56.868141140000006 R1
Au   11.680000    8.429314   56.868141140000006 R1
Au    2.920000    3.371726   56.868141140000006 R1
Au   11.680001    3.371726   56.868141140000006 R1
Au    7.300000   10.958109   56.868141140000006 R1
Au   16.059998   10.958109   56.868141140000006 R1
Au    5.840000    3.371726   56.868141140000006 R1
Au   14.600000    3.371726   56.868141140000006 R1
Au   10.220000   10.958109   56.868141140000006 R1
Au   18.980000   10.958109   56.868141140000006 R1
Au    8.760000    3.371726   56.868141140000006 R1
Au   13.139999   10.958109   56.868141140000006 R1
Au    4.380000    5.900520   56.868141140000006 R1
Au   13.140000    5.900520   56.868141140000006 R1
Au    7.300000    5.900520   56.868141140000006 R1
Au   16.059999    5.900520   56.868141140000006 R1
Au   10.220000    5.900520   56.868141140000006 R1
Au    0.000000    0.000000   59.25231114000001 R1
Au    8.760000    0.000000   59.25231114000001 R1
Au    4.380000    7.586382   59.25231114000001 R1
Au   13.139999    7.586382   59.25231114000001 R1
Au    2.920000    0.000000   59.25231114000001 R1
Au   11.680000    0.000000   59.25231114000001 R1
Au    7.300000    7.586382   59.25231114000001 R1
Au   16.059999    7.586382   59.25231114000001 R1
Au    5.840000    0.000000   59.25231114000001 R1
Au   10.220000    7.586382   59.25231114000001 R1
Au    1.460000    2.528794   59.25231114000001 R1
Au   10.220000    2.528794   59.25231114000001 R1
Au    5.840000   10.115176   59.25231114000001 R1
Au   14.600000   10.115176   59.25231114000001 R1
Au    4.380000    2.528794   59.25231114000001 R1
Au   13.140000    2.528794   59.25231114000001 R1
Au    8.760000   10.115176   59.25231114000001 R1
Au   17.520000   10.115176   59.25231114000001 R1
Au    7.300000    2.528794   59.25231114000001 R1
Au   11.680000   10.115176   59.25231114000001 R1
Au    2.920000    5.057588   59.25231114000001 R1
Au   11.680000    5.057588   59.25231114000001 R1
Au    5.840000    5.057588   59.25231114000001 R1
Au   14.600000    5.057588   59.25231114000001 R1
Au    8.760000    5.057588   59.25231114000001 R1
Au    8.760002    1.685863   61.63648114000001 R2
Au   13.140000    9.272246   61.63648114000001 R2
Au    2.920000    1.685863   61.63648114000001 R2
Au   11.680000    1.685863   61.63648114000001 R2
Au    7.300000    9.272246   61.63648114000001 R2
Au   16.059999    9.272246   61.63648114000001 R2
Au    5.840001    1.685863   61.63648114000001 R2
Au   14.600000    1.685863   61.63648114000001 R2
Au   10.220000    9.272246   61.63648114000001 R2
Au   18.980000    9.272246   61.63648114000001 R2
Au   10.220001    4.214657   61.63648114000001 R2
Au   14.600000   11.801040   61.63648114000001 R2
Au    4.380000    4.214657   61.63648114000001 R2
Au   13.140000    4.214657   61.63648114000001 R2
Au    8.760000   11.801040   61.63648114000001 R2
Au   17.520000   11.801040   61.63648114000001 R2
Au    7.300000    4.214657   61.63648114000001 R2
Au   16.059999    4.214657   61.63648114000001 R2
Au   11.680000   11.801040   61.63648114000001 R2
Au   20.440001   11.801040   61.63648114000001 R2
Au   11.680000    6.743451   61.63648114000001 R2
Au    5.840000    6.743451   61.63648114000001 R2
Au   14.600000    6.743451   61.63648114000001 R2
Au    8.760000    6.743451   61.63648114000001 R2
Au   17.520000    6.743451   61.63648114000001 R2
Au    1.460000    0.842931   64.02065114000001 R2
Au   10.220000    0.842931   64.02065114000001 R2
Au    5.840001    8.429314   64.02065114000001 R2
Au   14.600000    8.429314   64.02065114000001 R2
Au    4.380000    0.842931   64.02065114000001 R2
Au   13.140001    0.842931   64.02065114000001 R2
Au    8.760000    8.429314   64.02065114000001 R2
Au   17.520000    8.429314   64.02065114000001 R2
Au    7.300001    0.842931   64.02065114000001 R2
Au   11.680000    8.429314   64.02065114000001 R2
Au    2.920000    3.371726   64.02065114000001 R2
Au   11.680001    3.371726   64.02065114000001 R2
Au    7.300000   10.958109   64.02065114000001 R2
Au   16.059998   10.958109   64.02065114000001 R2
Au    5.840000    3.371726   64.02065114000001 R2
Au   14.600000    3.371726   64.02065114000001 R2
Au   10.220000   10.958109   64.02065114000001 R2
Au   18.980000   10.958109   64.02065114000001 R2
Au    8.760000    3.371726   64.02065114000001 R2
Au   13.139999   10.958109   64.02065114000001 R2
Au    4.380000    5.900520   64.02065114000001 R2
Au   13.140000    5.900520   64.02065114000001 R2
Au    7.300000    5.900520   64.02065114000001 R2
Au   16.059999    5.900520   64.02065114000001 R2
Au   10.220000    5.900520   64.02065114000001 R2
Au    0.000000    0.000000   66.40482114000001 R2
Au    8.760000    0.000000   66.40482114000001 R2
Au    4.380000    7.586382   66.40482114000001 R2
Au   13.139999    7.586382   66.40482114000001 R2
Au    2.920000    0.000000   66.40482114000001 R2
Au   11.680000    0.000000   66.40482114000001 R2
Au    7.300000    7.586382   66.40482114000001 R2
Au   16.059999    7.586382   66.40482114000001 R2
Au    5.840000    0.000000   66.40482114000001 R2
Au   10.220000    7.586382   66.40482114000001 R2
Au    1.460000    2.528794   66.40482114000001 R2
Au   10.220000    2.528794   66.40482114000001 R2
Au    5.840000   10.115176   66.40482114000001 R2
Au   14.600000   10.115176   66.40482114000001 R2
Au    4.380000    2.528794   66.40482114000001 R2
Au   13.140000    2.528794   66.40482114000001 R2
Au    8.760000   10.115176   66.40482114000001 R2
Au   17.520000   10.115176   66.40482114000001 R2
Au    7.300000    2.528794   66.40482114000001 R2
Au   11.680000   10.115176   66.40482114000001 R2
Au    2.920000    5.057588   66.40482114000001 R2
Au   11.680000    5.057588   66.40482114000001 R2
Au    5.840000    5.057588   66.40482114000001 R2
Au   14.600000    5.057588   66.40482114000001 R2
Au    8.760000    5.057588   66.40482114000001 R2
Au    8.760002    1.685863   68.78899114000001 R3
Au   13.140000    9.272246   68.78899114000001 R3
Au    2.920000    1.685863   68.78899114000001 R3
Au   11.680000    1.685863   68.78899114000001 R3
Au    7.300000    9.272246   68.78899114000001 R3
Au   16.059999    9.272246   68.78899114000001 R3
Au    5.840001    1.685863   68.78899114000001 R3
Au   14.600000    1.685863   68.78899114000001 R3
Au   10.220000    9.272246   68.78899114000001 R3
Au   18.980000    9.272246   68.78899114000001 R3
Au   10.220001    4.214657   68.78899114000001 R3
Au   14.600000   11.801040   68.78899114000001 R3
Au    4.380000    4.214657   68.78899114000001 R3
Au   13.140000    4.214657   68.78899114000001 R3
Au    8.760000   11.801040   68.78899114000001 R3
Au   17.520000   11.801040   68.78899114000001 R3
Au    7.300000    4.214657   68.78899114000001 R3
Au   16.059999    4.214657   68.78899114000001 R3
Au   11.680000   11.801040   68.78899114000001 R3
Au   20.440001   11.801040   68.78899114000001 R3
Au   11.680000    6.743451   68.78899114000001 R3
Au    5.840000    6.743451   68.78899114000001 R3
Au   14.600000    6.743451   68.78899114000001 R3
Au    8.760000    6.743451   68.78899114000001 R3
Au   17.520000    6.743451   68.78899114000001 R3
Au    1.460000    0.842931   71.17316114 R3
Au   10.220000    0.842931   71.17316114 R3
Au    5.840001    8.429314   71.17316114 R3
Au   14.600000    8.429314   71.17316114 R3
Au    4.380000    0.842931   71.17316114 R3
Au   13.140001    0.842931   71.17316114 R3
Au    8.760000    8.429314   71.17316114 R3
Au   17.520000    8.429314   71.17316114 R3
Au    7.300001    0.842931   71.17316114 R3
Au   11.680000    8.429314   71.17316114 R3
Au    2.920000    3.371726   71.17316114 R3
Au   11.680001    3.371726   71.17316114 R3
Au    7.300000   10.958109   71.17316114 R3
Au   16.059998   10.958109   71.17316114 R3
Au    5.840000    3.371726   71.17316114 R3
Au   14.600000    3.371726   71.17316114 R3
Au   10.220000   10.958109   71.17316114 R3
Au   18.980000   10.958109   71.17316114 R3
Au    8.760000    3.371726   71.17316114 R3
Au   13.139999   10.958109   71.17316114 R3
Au    4.380000    5.900520   71.17316114 R3
Au   13.140000    5.900520   71.17316114 R3
Au    7.300000    5.900520   71.17316114 R3
Au   16.059999    5.900520   71.17316114 R3
Au   10.220000    5.900520   71.17316114 R3
Au    0.000000    0.000000   73.55733114 R3
Au    8.760000    0.000000   73.55733114 R3
Au    4.380000    7.586382   73.55733114 R3
Au   13.139999    7.586382   73.55733114 R3
Au    2.920000    0.000000   73.55733114 R3
Au   11.680000    0.000000   73.55733114 R3
Au    7.300000    7.586382   73.55733114 R3
Au   16.059999    7.586382   73.55733114 R3
Au    5.840000    0.000000   73.55733114 R3
Au   10.220000    7.586382   73.55733114 R3
Au    1.460000    2.528794   73.55733114 R3
Au   10.220000    2.528794   73.55733114 R3
Au    5.840000   10.115176   73.55733114 R3
Au   14.600000   10.115176   73.55733114 R3
Au    4.380000    2.528794   73.55733114 R3
Au   13.140000    2.528794   73.55733114 R3
Au    8.760000   10.115176   73.55733114 R3
Au   17.520000   10.115176   73.55733114 R3
Au    7.300000    2.528794   73.55733114 R3
Au   11.680000   10.115176   73.55733114 R3
Au    2.920000    5.057588   73.55733114 R3
Au   11.680000    5.057588   73.55733114 R3
Au    5.840000    5.057588   73.55733114 R3
Au   14.600000    5.057588   73.55733114 R3
Au    8.760000    5.057588   73.55733114 R3
