      40
 i =      351, E =      -134.6283629926
  C        -0.1831886379       11.6358828694       -5.8923145425
  C         0.4735332558       12.5564486210       -6.7655935202
  C         1.1863532004       12.1102251928       -7.8652503085
  C         1.2876117295       10.7342784655       -8.1628412722
  C        -0.0707283335       10.2451437586       -6.1999941587
  C         0.6458111783        9.8162180048       -7.3037260636
  C         8.8306340115        7.6672101695      -11.8271166938
  H         1.6734027168       12.8334410087       -8.5231891827
  S        -1.0717113789       12.1756570436       -4.5409531955
  H        -0.5703172997        9.5315841202       -5.5446150246
  H         0.7108682819        8.7482403005       -7.5237470193
  H         0.3920827082       13.6208548500       -6.5449068581
  C         9.5895357563        8.4532035561      -12.7197180546
  C        10.2326465140        7.8868618021      -13.8075464707
  C        10.1433408948        6.4848051381      -14.0657796802
  C         9.3716419450        5.6977686496      -13.1562508868
  C         8.7386764428        6.2794248219      -12.0719786043
  H        10.8242076136        8.4983468995      -14.4889008494
  H         9.6744360516        9.5273633807      -12.5413108603
  H         9.2992917944        4.6255559141      -13.3384326987
  H         8.1596951469        5.6558131246      -11.3869999910
  S        10.9297060586        5.7775015846      -15.4030056908
  C         2.0911210721       10.2542452680       -9.3374137053
  C         8.0971664806        8.2907889955      -10.6738663488
  C         6.6141173626        8.5702335156      -11.0048443887
  C         3.5668684191        9.9739099340       -8.9740269593
  H         2.0595701555       11.0049788358      -10.1428151532
  H         1.6435593614        9.3311992349       -9.7391521360
  H         8.1449883320        7.6223862382       -9.7989418638
  H         8.5861696076        9.2342160171      -10.3858088923
  C         4.3708524402        9.4405349506      -10.1625231742
  H         4.0269198438       10.9001499462       -8.5926982799
  H         3.6032457746        9.2489083120       -8.1445257922
  C         5.8393127501        9.1651641311       -9.8257801990
  H         5.8954668091        8.4762063243       -8.9654956578
  H         6.3233648264       10.1011720672       -9.4988157636
  H         4.3154602721       10.1602832190      -10.9969860004
  H         3.9014539425        8.5123639517      -10.5311673297
  H         6.5614962235        9.2514382608      -11.8699158306
  H         6.1348115942        7.6308417673      -11.3255715075
