     221
 i =       21, E =     -1959.6943501172
 Au         0.0000000000        0.0000000000        0.0000000000 L3
 Au         2.9200000000        0.0000000000        0.0000000000 L3
 Au         5.8400000000        0.0000000000        0.0000000000 L3
 Au         1.4600000000        2.5287941680        0.0000000000 L3
 Au         4.3800000000        2.5287941680        0.0000000000 L3
 Au         7.3000000000        2.5287941680        0.0000000000 L3
 Au         2.9200000000        5.0575883360        0.0000000000 L3
 Au         5.8400000000        5.0575883360        0.0000000000 L3
 Au         8.7600000000        5.0575883360        0.0000000000 L3
 Au         1.4600000000        0.8429312920        2.3841700720 L3
 Au         4.3800000000        0.8429312920        2.3841700720 L3
 Au         7.3000000000        0.8429312920        2.3841700720 L3
 Au         2.9200000000        3.3717254600        2.3841700720 L3
 Au         5.8400000000        3.3717254600        2.3841700720 L3
 Au         8.7600000000        3.3717254600        2.3841700720 L3
 Au         4.3800000000        5.9005196280        2.3841700720 L3
 Au         7.3000000000        5.9005196280        2.3841700720 L3
 Au        10.2200000000        5.9005196280        2.3841700720 L3
 Au         0.0000000000        1.6858628760        4.7683401440 L3
 Au         2.9200000000        1.6858628760        4.7683401440 L3
 Au         5.8400000000        1.6858628760        4.7683401440 L3
 Au         1.4600000000        4.2146570440        4.7683401440 L3
 Au         4.3800000000        4.2146570440        4.7683401440 L3
 Au         7.3000000000        4.2146570440        4.7683401440 L3
 Au         2.9200000000        6.7434512120        4.7683401440 L3
 Au         5.8400000000        6.7434512120        4.7683401440 L3
 Au         8.7600000000        6.7434512120        4.7683401440 L3
 Au         0.0000000000        0.0000000000        7.1525099240 L2
 Au         2.9200000000        0.0000000000        7.1525099240 L2
 Au         5.8400000000        0.0000000000        7.1525099240 L2
 Au         1.4600000000        2.5287941680        7.1525099240 L2
 Au         4.3800000000        2.5287941680        7.1525099240 L2
 Au         7.3000000000        2.5287941680        7.1525099240 L2
 Au         2.9200000000        5.0575883360        7.1525099240 L2
 Au         5.8400000000        5.0575883360        7.1525099240 L2
 Au         8.7600000000        5.0575883360        7.1525099240 L2
 Au         1.4600000000        0.8429312920        9.5366799960 L2
 Au         4.3800000000        0.8429312920        9.5366799960 L2
 Au         7.3000000000        0.8429312920        9.5366799960 L2
 Au         2.9200000000        3.3717254600        9.5366799960 L2
 Au         5.8400000000        3.3717254600        9.5366799960 L2
 Au         8.7600000000        3.3717254600        9.5366799960 L2
 Au         4.3800000000        5.9005196280        9.5366799960 L2
 Au         7.3000000000        5.9005196280        9.5366799960 L2
 Au        10.2200000000        5.9005196280        9.5366799960 L2
 Au         0.0000000000        1.6858628760       11.9208500680 L2
 Au         2.9200000000        1.6858628760       11.9208500680 L2
 Au         5.8400000000        1.6858628760       11.9208500680 L2
 Au         1.4600000000        4.2146570440       11.9208500680 L2
 Au         4.3800000000        4.2146570440       11.9208500680 L2
 Au         7.3000000000        4.2146570440       11.9208500680 L2
 Au         2.9200000000        6.7434512120       11.9208500680 L2
 Au         5.8400000000        6.7434512120       11.9208500680 L2
 Au         8.7600000000        6.7434512120       11.9208500680 L2
 Au         0.0000000000        0.0000000000       14.3050198480 L1
 Au         2.9200000000        0.0000000000       14.3050198480 L1
 Au         5.8400000000        0.0000000000       14.3050198480 L1
 Au         1.4600000000        2.5287941680       14.3050198480 L1
 Au         4.3800000000        2.5287941680       14.3050198480 L1
 Au         7.3000000000        2.5287941680       14.3050198480 L1
 Au         2.9200000000        5.0575883360       14.3050198480 L1
 Au         5.8400000000        5.0575883360       14.3050198480 L1
 Au         8.7600000000        5.0575883360       14.3050198480 L1
 Au         1.4600000000        0.8429312920       16.6891899200 L1
 Au         4.3800000000        0.8429312920       16.6891899200 L1
 Au         7.3000000000        0.8429312920       16.6891899200 L1
 Au         2.9200000000        3.3717254600       16.6891899200 L1
 Au         5.8400000000        3.3717254600       16.6891899200 L1
 Au         8.7600000000        3.3717254600       16.6891899200 L1
 Au         4.3800000000        5.9005196280       16.6891899200 L1
 Au         7.3000000000        5.9005196280       16.6891899200 L1
 Au        10.2200000000        5.9005196280       16.6891899200 L1
 Au         0.0000000000        1.6858628760       19.0733599920 L1
 Au         2.9200000000        1.6858628760       19.0733599920 L1
 Au         5.8400000000        1.6858628760       19.0733599920 L1
 Au         1.4600000000        4.2146570440       19.0733599920 L1
 Au         4.3800000000        4.2146570440       19.0733599920 L1
 Au         7.3000000000        4.2146570440       19.0733599920 L1
 Au         2.9200000000        6.7434512120       19.0733599920 L1
 Au         5.8400000000        6.7434512120       19.0733599920 L1
 Au         8.7600000000        6.7434512120       19.0733599920 L1
Au    0.0000000000    0.0000000000    21.457530064    L0
Au    2.9200000000    0.0000000000    21.457530064    L0
Au    5.8400000000    0.0000000000    21.457530064    L0
Au    1.4600000000    2.5287941680    21.457530064    L0
Au    4.3800000000    2.5287941680    21.457530064    L0
Au    7.3000000000    2.5287941680    21.457530064    L0
Au    2.9200000000    5.0575883360    21.457530064    L0
Au    5.8400000000    5.0575883360    21.457530064    L0
Au    8.7600000000    5.0575883360    21.457530064    L0
Au    1.4600000000    0.8429312920    23.841700136    L0
Au    4.3800000000    0.8429312920    23.841700136    L0
Au    7.3000000000    0.8429312920    23.841700136    L0
Au    2.9200000000    3.3717254600    23.841700136    L0
Au    5.8400000000    3.3717254600    23.841700136    L0
Au    8.7600000000    3.3717254600    23.841700136    L0
Au    4.3800000000    5.9005196280    23.841700136    L0
Au    7.3000000000    5.9005196280    23.841700136    L0
Au    10.2200000000    5.9005196280    23.841700136    L0
Au    0.0000000000    1.6858628760    26.225870208    L0
Au    2.9200000000    1.6858628760    26.225870208    L0
Au    5.8400000000    1.6858628760    26.225870208    L0
Au    1.4600000000    4.2146570440    26.225870208    L0
Au    4.3800000000    4.2146570440    26.225870208    L0
Au    7.3000000000    4.2146570440    26.225870208    L0
Au    2.9200000000    6.7434512120    26.225870208    L0
Au    5.8400000000    6.7434512120    26.225870208    L0
Au    8.7600000000    6.7434512120    26.225870208    L0
Au    4.3800000000    4.2146600000    28.610040208    L0
C    3.0554655166    3.3439293511    31.305689333700002    S
C    3.0295509200    3.1712251415    32.8192867459    S
C    2.6858074295    1.7633992209    33.3044587588    S
H    3.3760423633    1.0145449420    32.890810349    S
H    2.7425669956    1.7334096440    34.4013774138    S
H    1.6592955630    1.4781037565    33.033493761900004    S
N    4.3487394899    3.6159050854    33.3308867808    S
H    2.2725646972    3.8760172818    33.205582924699996    S
H    4.7025485163    4.3468735467    32.7034329245    S
H    5.0148240790    2.8394287839    33.2573886867    S
O    3.9804528798    3.9887979985    30.8079763216    S
O    2.0834646027    2.8460450646    30.5421377851    S
H    1.4583588958    2.3155303167    31.074442603    S
Au    4.3800000000    4.2146600000    35.4132348611    R0
Au    8.7600000000    6.7434512120    37.7974048611    R0
Au    5.8400000000    6.7434512120    37.7974048611    R0
Au    2.9200000000    6.7434512120    37.7974048611    R0
Au    7.3000000000    4.2146570440    37.7974048611    R0
Au    4.3800000000    4.2146570440    37.7974048611    R0
Au    1.4600000000    4.2146570440    37.7974048611    R0
Au    5.8400000000    1.6858628760    37.7974048611    R0
Au    2.9200000000    1.6858628760    37.7974048611    R0
Au    0.0000000000    1.6858628760    37.7974048611    R0
Au    10.2200000000    5.9005196280    40.181574933099995    R0
Au    7.3000000000    5.9005196280    40.181574933099995    R0
Au    4.3800000000    5.9005196280    40.181574933099995    R0
Au    8.7600000000    3.3717254600    40.181574933099995    R0
Au    5.8400000000    3.3717254600    40.181574933099995    R0
Au    2.9200000000    3.3717254600    40.181574933099995    R0
Au    7.3000000000    0.8429312920    40.181574933099995    R0
Au    4.3800000000    0.8429312920    40.181574933099995    R0
Au    1.4600000000    0.8429312920    40.181574933099995    R0
Au    8.7600000000    5.0575883360    42.5657450051    R0
Au    5.8400000000    5.0575883360    42.5657450051    R0
Au    2.9200000000    5.0575883360    42.5657450051    R0
Au    7.3000000000    2.5287941680    42.5657450051    R0
Au    4.3800000000    2.5287941680    42.5657450051    R0
Au    1.4600000000    2.5287941680    42.5657450051    R0
Au    5.8400000000    0.0000000000    42.5657450051    R0
Au    2.9200000000    0.0000000000    42.5657450051    R0
Au    0.0000000000    0.0000000000    42.5657450051    R0
Au    8.7600000000    6.7434512120    44.9499150771    R1
Au    5.8400000000    6.7434512120    44.9499150771    R1
Au    2.9200000000    6.7434512120    44.9499150771    R1
Au    7.3000000000    4.2146570440    44.9499150771    R1
Au    4.3800000000    4.2146570440    44.9499150771    R1
Au    1.4600000000    4.2146570440    44.9499150771    R1
Au    5.8400000000    1.6858628760    44.9499150771    R1
Au    2.9200000000    1.6858628760    44.9499150771    R1
Au    0.0000000000    1.6858628760    44.9499150771    R1
Au    10.2200000000    5.9005196280    47.334085149100005    R1
Au    7.3000000000    5.9005196280    47.334085149100005    R1
Au    4.3800000000    5.9005196280    47.334085149100005    R1
Au    8.7600000000    3.3717254600    47.334085149100005    R1
Au    5.8400000000    3.3717254600    47.334085149100005    R1
Au    2.9200000000    3.3717254600    47.334085149100005    R1
Au    7.3000000000    0.8429312920    47.334085149100005    R1
Au    4.3800000000    0.8429312920    47.334085149100005    R1
Au    1.4600000000    0.8429312920    47.334085149100005    R1
Au    8.7600000000    5.0575883360    49.7182552211    R1
Au    5.8400000000    5.0575883360    49.7182552211    R1
Au    2.9200000000    5.0575883360    49.7182552211    R1
Au    7.3000000000    2.5287941680    49.7182552211    R1
Au    4.3800000000    2.5287941680    49.7182552211    R1
Au    1.4600000000    2.5287941680    49.7182552211    R1
Au    5.8400000000    0.0000000000    49.7182552211    R1
Au    2.9200000000    0.0000000000    49.7182552211    R1
Au    0.0000000000    0.0000000000    49.7182552211    R1
Au    8.7600000000    6.7434512120    52.1024250011    R2
Au    5.8400000000    6.7434512120    52.1024250011    R2
Au    2.9200000000    6.7434512120    52.1024250011    R2
Au    7.3000000000    4.2146570440    52.1024250011    R2
Au    4.3800000000    4.2146570440    52.1024250011    R2
Au    1.4600000000    4.2146570440    52.1024250011    R2
Au    5.8400000000    1.6858628760    52.1024250011    R2
Au    2.9200000000    1.6858628760    52.1024250011    R2
Au    0.0000000000    1.6858628760    52.1024250011    R2
Au    10.2200000000    5.9005196280    54.486595073100005    R2
Au    7.3000000000    5.9005196280    54.486595073100005    R2
Au    4.3800000000    5.9005196280    54.486595073100005    R2
Au    8.7600000000    3.3717254600    54.486595073100005    R2
Au    5.8400000000    3.3717254600    54.486595073100005    R2
Au    2.9200000000    3.3717254600    54.486595073100005    R2
Au    7.3000000000    0.8429312920    54.486595073100005    R2
Au    4.3800000000    0.8429312920    54.486595073100005    R2
Au    1.4600000000    0.8429312920    54.486595073100005    R2
Au    8.7600000000    5.0575883360    56.8707651451    R2
Au    5.8400000000    5.0575883360    56.8707651451    R2
Au    2.9200000000    5.0575883360    56.8707651451    R2
Au    7.3000000000    2.5287941680    56.8707651451    R2
Au    4.3800000000    2.5287941680    56.8707651451    R2
Au    1.4600000000    2.5287941680    56.8707651451    R2
Au    5.8400000000    0.0000000000    56.8707651451    R2
Au    2.9200000000    0.0000000000    56.8707651451    R2
Au    0.0000000000    0.0000000000    56.8707651451    R2
Au    8.7600000000    6.7434512120    59.25493492509999    R3
Au    5.8400000000    6.7434512120    59.25493492509999    R3
Au    2.9200000000    6.7434512120    59.25493492509999    R3
Au    7.3000000000    4.2146570440    59.25493492509999    R3
Au    4.3800000000    4.2146570440    59.25493492509999    R3
Au    1.4600000000    4.2146570440    59.25493492509999    R3
Au    5.8400000000    1.6858628760    59.25493492509999    R3
Au    2.9200000000    1.6858628760    59.25493492509999    R3
Au    0.0000000000    1.6858628760    59.25493492509999    R3
Au    10.2200000000    5.9005196280    61.639104997100006    R3
Au    7.3000000000    5.9005196280    61.639104997100006    R3
Au    4.3800000000    5.9005196280    61.639104997100006    R3
Au    8.7600000000    3.3717254600    61.639104997100006    R3
Au    5.8400000000    3.3717254600    61.639104997100006    R3
Au    2.9200000000    3.3717254600    61.639104997100006    R3
Au    7.3000000000    0.8429312920    61.639104997100006    R3
Au    4.3800000000    0.8429312920    61.639104997100006    R3
Au    1.4600000000    0.8429312920    61.639104997100006    R3
Au    8.7600000000    5.0575883360    64.0232750691    R3
Au    5.8400000000    5.0575883360    64.0232750691    R3
Au    2.9200000000    5.0575883360    64.0232750691    R3
Au    7.3000000000    2.5287941680    64.0232750691    R3
Au    4.3800000000    2.5287941680    64.0232750691    R3
Au    1.4600000000    2.5287941680    64.0232750691    R3
Au    5.8400000000    0.0000000000    64.0232750691    R3
Au    2.9200000000    0.0000000000    64.0232750691    R3
Au    0.0000000000    0.0000000000    64.0232750691    R3
