     69
 i =      278, E =     -1924.3000832564
 Au         0.0000000000        0.0000000000        0.0000000000
 Au         2.9200000000        0.0000000000        0.0000000000
 Au         5.8400000000        0.0000000000        0.0000000000
 Au         1.4600000000        2.5287941680        0.0000000000
 Au         4.3800000000        2.5287941680        0.0000000000
 Au         7.3000000000        2.5287941680        0.0000000000
 Au         2.9200000000        5.0575883360        0.0000000000
 Au         5.8400000000        5.0575883360        0.0000000000
 Au         8.7600000000        5.0575883360        0.0000000000
 Au         1.4600000000        0.8429312920        2.3841700720
 Au         4.3800000000        0.8429312920        2.3841700720
 Au         7.3000000000        0.8429312920        2.3841700720
 Au         2.9200000000        3.3717254600        2.3841700720
 Au         5.8400000000        3.3717254600        2.3841700720
 Au         8.7600000000        3.3717254600        2.3841700720
 Au         4.3800000000        5.9005196280        2.3841700720
 Au         7.3000000000        5.9005196280        2.3841700720
 Au        10.2200000000        5.9005196280        2.3841700720
 Au         0.0000000000        1.6858628760        4.7683401440
 Au         2.9200000000        1.6858628760        4.7683401440
 Au         5.8400000000        1.6858628760        4.7683401440
 Au         1.4600000000        4.2146570440        4.7683401440
 Au         4.3800000000        4.2146570440        4.7683401440
 Au         7.3000000000        4.2146570440        4.7683401440
 Au         2.9200000000        6.7434512120        4.7683401440
 Au         5.8400000000        6.7434512120        4.7683401440
 Au         8.7600000000        6.7434512120        4.7683401440
 Au         4.3800000000        4.2146600000        7.1525101440
  C         3.0554655166        3.3439293511        9.8481592697
  C         3.0295509200        3.1712251415       11.3617566819
  C         2.6858074295        1.7633992209       11.8469286948
  H         3.3760423633        1.0145449420       11.4332802850
  H         2.7425669956        1.7334096440       12.9438473498
  H         1.6592955630        1.4781037565       11.5759636979
  N         4.3487394899        3.6159050854       11.8733567168
  H         2.2725646972        3.8760172818       11.7480528607
  H         4.7025485163        4.3468735467       11.2459028605
  H         5.0148240790        2.8394287839       11.7998586227
  O         3.9804528798        3.9887979985        9.3504462576
  O         2.0834646027        2.8460450646        9.0846077211
  H         1.4583588958        2.3155303167        9.6169125390
 Au         4.3800000000        4.2146600000       13.9557047971
 Au         8.7600000000        6.7434512120       16.3398747971
 Au         5.8400000000        6.7434512120       16.3398747971
 Au         2.9200000000        6.7434512120       16.3398747971
 Au         7.3000000000        4.2146570440       16.3398747971
 Au         4.3800000000        4.2146570440       16.3398747971
 Au         1.4600000000        4.2146570440       16.3398747971
 Au         5.8400000000        1.6858628760       16.3398747971
 Au         2.9200000000        1.6858628760       16.3398747971
 Au         0.0000000000        1.6858628760       16.3398747971
 Au        10.2200000000        5.9005196280       18.7240448691
 Au         7.3000000000        5.9005196280       18.7240448691
 Au         4.3800000000        5.9005196280       18.7240448691
 Au         8.7600000000        3.3717254600       18.7240448691
 Au         5.8400000000        3.3717254600       18.7240448691
 Au         2.9200000000        3.3717254600       18.7240448691
 Au         7.3000000000        0.8429312920       18.7240448691
 Au         4.3800000000        0.8429312920       18.7240448691
 Au         1.4600000000        0.8429312920       18.7240448691
 Au         8.7600000000        5.0575883360       21.1082149411
 Au         5.8400000000        5.0575883360       21.1082149411
 Au         2.9200000000        5.0575883360       21.1082149411
 Au         7.3000000000        2.5287941680       21.1082149411
 Au         4.3800000000        2.5287941680       21.1082149411
 Au         1.4600000000        2.5287941680       21.1082149411
 Au         5.8400000000        0.0000000000       21.1082149411
 Au         2.9200000000        0.0000000000       21.1082149411
 Au         0.0000000000        0.0000000000       21.1082149411
Au    8.7600000000    6.7434512120    50.244370136    R1
Au    5.8400000000    6.7434512120    50.244370136    R1
Au    2.9200000000    6.7434512120    50.244370136    R1
Au    7.3000000000    4.2146570440    50.244370136    R1
Au    4.3800000000    4.2146570440    50.244370136    R1
Au    1.4600000000    4.2146570440    50.244370136    R1
Au    5.8400000000    1.6858628760    50.244370136    R1
Au    2.9200000000    1.6858628760    50.244370136    R1
Au    0.0000000000    1.6858628760    50.244370136    R1
Au    10.2200000000    5.9005196280    52.628540208000004    R1
Au    7.3000000000    5.9005196280    52.628540208000004    R1
Au    4.3800000000    5.9005196280    52.628540208000004    R1
Au    8.7600000000    3.3717254600    52.628540208000004    R1
Au    5.8400000000    3.3717254600    52.628540208000004    R1
Au    2.9200000000    3.3717254600    52.628540208000004    R1
Au    7.3000000000    0.8429312920    52.628540208000004    R1
Au    4.3800000000    0.8429312920    52.628540208000004    R1
Au    1.4600000000    0.8429312920    52.628540208000004    R1
Au    8.7600000000    5.0575883360    55.01271028    R1
Au    5.8400000000    5.0575883360    55.01271028    R1
Au    2.9200000000    5.0575883360    55.01271028    R1
Au    7.3000000000    2.5287941680    55.01271028    R1
Au    4.3800000000    2.5287941680    55.01271028    R1
Au    1.4600000000    2.5287941680    55.01271028    R1
Au    5.8400000000    0.0000000000    55.01271028    R1
Au    2.9200000000    0.0000000000    55.01271028    R1
Au    0.0000000000    0.0000000000    55.01271028    R1
Au    8.7600000000    6.7434512120    57.39688006    R2
Au    5.8400000000    6.7434512120    57.39688006    R2
Au    2.9200000000    6.7434512120    57.39688006    R2
Au    7.3000000000    4.2146570440    57.39688006    R2
Au    4.3800000000    4.2146570440    57.39688006    R2
Au    1.4600000000    4.2146570440    57.39688006    R2
Au    5.8400000000    1.6858628760    57.39688006    R2
Au    2.9200000000    1.6858628760    57.39688006    R2
Au    0.0000000000    1.6858628760    57.39688006    R2
Au    10.2200000000    5.9005196280    59.781050132000004    R2
Au    7.3000000000    5.9005196280    59.781050132000004    R2
Au    4.3800000000    5.9005196280    59.781050132000004    R2
Au    8.7600000000    3.3717254600    59.781050132000004    R2
Au    5.8400000000    3.3717254600    59.781050132000004    R2
Au    2.9200000000    3.3717254600    59.781050132000004    R2
Au    7.3000000000    0.8429312920    59.781050132000004    R2
Au    4.3800000000    0.8429312920    59.781050132000004    R2
Au    1.4600000000    0.8429312920    59.781050132000004    R2
Au    8.7600000000    5.0575883360    62.165220204    R2
Au    5.8400000000    5.0575883360    62.165220204    R2
Au    2.9200000000    5.0575883360    62.165220204    R2
Au    7.3000000000    2.5287941680    62.165220204    R2
Au    4.3800000000    2.5287941680    62.165220204    R2
Au    1.4600000000    2.5287941680    62.165220204    R2
Au    5.8400000000    0.0000000000    62.165220204    R2
Au    2.9200000000    0.0000000000    62.165220204    R2
Au    0.0000000000    0.0000000000    62.165220204    R2
Au    8.7600000000    6.7434512120    64.54938998399999    R3
Au    5.8400000000    6.7434512120    64.54938998399999    R3
Au    2.9200000000    6.7434512120    64.54938998399999    R3
Au    7.3000000000    4.2146570440    64.54938998399999    R3
Au    4.3800000000    4.2146570440    64.54938998399999    R3
Au    1.4600000000    4.2146570440    64.54938998399999    R3
Au    5.8400000000    1.6858628760    64.54938998399999    R3
Au    2.9200000000    1.6858628760    64.54938998399999    R3
Au    0.0000000000    1.6858628760    64.54938998399999    R3
Au    10.2200000000    5.9005196280    66.933560056    R3
Au    7.3000000000    5.9005196280    66.933560056    R3
Au    4.3800000000    5.9005196280    66.933560056    R3
Au    8.7600000000    3.3717254600    66.933560056    R3
Au    5.8400000000    3.3717254600    66.933560056    R3
Au    2.9200000000    3.3717254600    66.933560056    R3
Au    7.3000000000    0.8429312920    66.933560056    R3
Au    4.3800000000    0.8429312920    66.933560056    R3
Au    1.4600000000    0.8429312920    66.933560056    R3
Au    8.7600000000    5.0575883360    69.317730128    R3
Au    5.8400000000    5.0575883360    69.317730128    R3
Au    2.9200000000    5.0575883360    69.317730128    R3
Au    7.3000000000    2.5287941680    69.317730128    R3
Au    4.3800000000    2.5287941680    69.317730128    R3
Au    1.4600000000    2.5287941680    69.317730128    R3
Au    5.8400000000    0.0000000000    69.317730128    R3
Au    2.9200000000    0.0000000000    69.317730128    R3
Au    0.0000000000    0.0000000000    69.317730128    R3