109 
i =      146, E =     -1594.2383687356
 Au         1.6649000000        0.0000000000        0.0000000000
 Au         6.6598000000        0.0000000000        0.0000000000
 Au         4.1623000000        1.4419000000        0.0000000000
 Au         9.1572000000        1.4419000000        0.0000000000
 Au         6.6598000000        2.8838000000        0.0000000000
 Au        11.6546000000        2.8838000000        0.0000000000
 Au         4.1623000000        4.3256000000        0.0000000000
 Au         9.1572000000        4.3256000000        0.0000000000
 Au         6.6598000000        5.7675000000        0.0000000000
 Au        11.6546000000        5.7675000000        0.0000000000
 Au         9.1572000000        7.2094000000        0.0000000000
 Au        14.1520000000        7.2094000000        0.0000000000
 Au         3.3299000000        0.0000000000        2.3546000000
 Au         8.3247000000        0.0000000000        2.3546000000
 Au         5.8273000000        1.4419000000        2.3546000000
 Au        10.8221000000        1.4419000000        2.3546000000
 Au         8.3247000000        2.8838000000        2.3546000000
 Au        13.3195000000        2.8838000000        2.3546000000
 Au         5.8273000000        4.3256000000        2.3546000000
 Au        10.8221000000        4.3256000000        2.3546000000
 Au         8.3247000000        5.7675000000        2.3546000000
 Au        13.3195000000        5.7675000000        2.3546000000
 Au        10.8221000000        7.2094000000        2.3546000000
 Au        15.8169000000        7.2094000000        2.3546000000
 Au         0.0000000000        0.0000000000        4.7091000000
 Au         4.9948000000        0.0000000000        4.7091000000
 Au         2.4974000000        1.4419000000        4.7091000000
 Au         7.4922000000        1.4419000000        4.7091000000
 Au         4.9948000000        2.8838000000        4.7091000000
 Au         9.9896000000        2.8838000000        4.7091000000
 Au         2.4974000000        4.3256000000        4.7091000000
 Au         7.4922000000        4.3256000000        4.7091000000
 Au         4.9948000000        5.7675000000        4.7091000000
 Au         9.9896000000        5.7675000000        4.7091000000
 Au         7.4922000000        7.2094000000        4.7091000000
 Au        12.4870000000        7.2094000000        4.7091000000
  H         7.9561653052        5.5289884196        8.5835198053
  C         8.6992146607        5.4424481690        9.3785904016
  C         8.4810770508        6.0366216555       10.5919657878
  H         7.5632840350        6.5938606004       10.7770366925
  C         9.4574750024        5.9386924940       11.6272387462
  N         9.2382635263        6.5479357180       12.8368224880
  C        10.6844592680        5.2581716062       11.3736429176
  H        11.4415540560        5.2157439386       12.1558162732
  C        10.9030825544        4.6627350174       10.1612890739
  H        11.8342678272        4.1371898985        9.9498904993
  C         9.9109990139        4.6931718639        9.1055786342
  N        10.1671601682        4.0455400870        7.9861594387
  H         9.3749873986        4.1474572910        7.3318055410
  C         4.7706670983        7.9446964492       15.7647779176
  C         5.3908302414        9.0283312858       16.5001898565
  C         6.5871407549        9.4175011843       15.7784205146
  C         6.7044954733        8.5921762199       14.6043762153
  C         5.5720062088        7.6880089993       14.5862450701
  C         5.7685456795        6.3678739758       14.1591274170
  C         7.0318517398        5.9708865780       13.6120191575
  C         7.9770983946        6.9657730002       13.3298520554
  C         7.9555690383        8.1948601541       14.0958565131
  C         9.1764437082        8.5165516899       14.8514104911
  C         9.0340821552        9.3204044119       16.0105921182
  C         7.7382050000        9.7891914843       16.4656594492
  C         7.7270689942        9.8172022489       17.9190822809
  C         6.5782808429        9.4372877826       18.6212648049
  C         5.3899474246        9.0274163465       17.8959481759
  C         4.7750346046        7.9340692925       18.6231458811
  C         5.5764515766        7.6696495081       19.8018764721
  C         6.6907956346        8.6027691640       19.8041250363
  C         7.9501798603        8.1874808826       20.2487705523
  C         9.1413118881        8.5934842423       19.5261811344
  C         9.0255259232        9.3851130134       18.3776176746
  C         9.8284276213        9.0917151866       17.2039757232
  C        10.7392798181        8.0441639997       17.2444662631
  C        10.8882413138        7.2063934575       16.0846721467
  C        10.1931571863        7.4536553945       14.8869930972
  C         9.9630168174        6.3084276041       14.0303814295
  C         9.8586733980        5.0370122918       14.6089182742
  C         8.6372074743        4.2014920519       14.5843064530
  C         7.3597411592        4.6230476684       14.1328162150
  C         6.1771327778        4.1918526244       14.8869768389
  C         6.2760983010        3.3742796385       16.0171977983
  C         7.5710651734        2.9435982723       16.4747069847
  C         8.7126740215        3.3568475033       15.7830956356
  C         9.8817995197        3.7265270500       16.5512868109
  C        10.5402237047        4.7935949916       15.8449645142
  C        11.1186659989        5.8548406054       16.5481326545
  C        11.0886597145        5.8585813289       17.9953297209
  C        10.8690888237        7.2224638827       18.4328976160
  C        10.0791823725        7.4849292032       19.5528518074
  C         9.4630675068        6.3886720568       20.2798692992
  C         8.1473858361        6.8218273581       20.7091622776
  C         7.0748256456        5.9211029009       20.6987242122
  C         5.7681559046        6.3524062400       20.2372281300
  C         5.1662908846        5.2529998434       19.5041095645
  C         6.1027106221        4.1432855540       19.5073060039
  C         7.2799645916        4.5543924831       20.2516455664
  C         8.5478791847        4.1362938653       19.8350094766
  C         9.6623020854        5.0687777509       19.8497290635
  C        10.4859238818        4.8014952894       18.6872509487
  C         9.8739565717        3.7122177767       17.9473198902
  C         8.6821185584        3.2984736973       18.6571654097
  C         7.5530164245        2.9160878490       17.9292838854
  C         6.2392316814        3.3422415122       18.3672148072
  C         5.4470535142        3.6191241292       17.1849405610
  C         4.5308061946        4.6702490118       17.1912008640
  C         4.3960095205        5.5093619764       18.3661364640
  C         4.1958087988        6.8742571591       17.9154717651
  C         4.1967017823        6.8775964544       16.4666034812
  C         4.4106691401        5.5124149881       16.0194389581
  C         5.2054706537        5.2656056266       14.8985601316