     135
 i =      225, E =     -2657.3508655382
 Au         1.6649000000        0.0000000000        0.0000000000
 Au         6.6598000000        0.0000000000        0.0000000000
 Au         4.1623000000        1.4419000000        0.0000000000
 Au         9.1572000000        1.4419000000        0.0000000000
 Au         6.6598000000        2.8838000000        0.0000000000
 Au        11.6546000000        2.8838000000        0.0000000000
 Au         4.1623000000        4.3256000000        0.0000000000
 Au         9.1572000000        4.3256000000        0.0000000000
 Au         6.6598000000        5.7675000000        0.0000000000
 Au        11.6546000000        5.7675000000        0.0000000000
 Au         9.1572000000        7.2094000000        0.0000000000
 Au        14.1520000000        7.2094000000        0.0000000000
 Au         3.3299000000        0.0000000000        2.3546000000
 Au         8.3247000000        0.0000000000        2.3546000000
 Au         5.8273000000        1.4419000000        2.3546000000
 Au        10.8221000000        1.4419000000        2.3546000000
 Au         8.3247000000        2.8838000000        2.3546000000
 Au        13.3195000000        2.8838000000        2.3546000000
 Au         5.8273000000        4.3256000000        2.3546000000
 Au        10.8221000000        4.3256000000        2.3546000000
 Au         8.3247000000        5.7675000000        2.3546000000
 Au        13.3195000000        5.7675000000        2.3546000000
 Au        10.8221000000        7.2094000000        2.3546000000
 Au        15.8169000000        7.2094000000        2.3546000000
 Au         0.0000000000        0.0000000000        4.7091000000
 Au         4.9948000000        0.0000000000        4.7091000000
 Au         2.4974000000        1.4419000000        4.7091000000
 Au         7.4922000000        1.4419000000        4.7091000000
 Au         4.9948000000        2.8838000000        4.7091000000
 Au         9.9896000000        2.8838000000        4.7091000000
 Au         2.4974000000        4.3256000000        4.7091000000
 Au         7.4922000000        4.3256000000        4.7091000000
 Au         4.9948000000        5.7675000000        4.7091000000
 Au         9.9896000000        5.7675000000        4.7091000000
 Au         7.4922000000        7.2094000000        4.7091000000
 Au        12.4870000000        7.2094000000        4.7091000000
  S         8.8901786320        1.9728823114        6.9035489655
  C         8.2142499986        3.1154093732        8.0733805784
  C         8.3652919795        2.8676003351        9.3906795492
  H         7.6664310210        3.9819634348        7.6944917138
  C         7.7864680535        3.6585312109       10.5279166311
  C         8.8161683123        4.0161815135       11.6214990339
  C         8.1745941921        4.4149457481       12.9582389589
  H         9.4679595899        4.8263082897       11.2552640052
  H         9.4771369040        3.1488714530       11.7902274557
  C         9.2217917338        4.8268695237       14.0121055956
  H         7.5873423505        3.5649454646       13.3448458596
  H         7.4595662130        5.2400127319       12.8091566311
  C         8.6635137319        5.0568402331       15.4070768668
  H         9.7156042421        5.7561641692       13.6776427227
  H        10.0046699468        4.0575940673       14.0782196058
  C         9.1046566146        4.3698900799       16.5154421795
  C         8.5286442997        4.5698298196       17.9090088748
  C         9.5671837845        4.7377625566       19.0334637848
  H         7.9073251447        3.6860747718       18.1420900080
  H         7.8466206451        5.4319076982       17.8850646614
  C         8.9219245778        4.7780792219       20.4254733278
  H        10.1566001755        5.6533127147       18.8584525690
  H        10.2806843494        3.8991529272       18.9913650455
  C         9.9632462828        4.8171426360       21.5643530372
  H         8.2875739882        3.8861622929       20.5532899452
  H         8.2548277055        5.6513521673       20.5143971253
  C         9.3827043052        4.6349959319       22.9380475387
  H        10.5138847831        5.7677225382       21.5393204575
  H        10.7004667338        4.0132309638       21.3991236570
  C         9.2895808980        5.5294098828       23.9436746531
  C         8.6668560651        5.3484827893       25.2975656714
  C         9.6198822563        5.4929674097       26.5015224730
  H         8.1924015276        4.3578136144       25.3265629140
  H         7.8574437418        6.0927232670       25.3983496528
  C         8.8595689526        5.3004637862       27.8195254644
  H        10.0922883421        6.4874956754       26.4802933853
  H        10.4338715471        4.7544511743       26.4196245572
  C         9.7163580823        5.5559720976       29.0772812008
  H         8.4515159314        4.2770288677       27.8646431272
  H         7.9913922804        5.9793158306       27.8387030371
  C         8.9333120319        5.3590592655       30.3556373429
  H        10.0978504185        6.5916594580       29.0481385288
  H        10.5928555361        4.8928679832       29.0898679583
  C         9.2625444124        4.4686415969       31.3633074984
  C         8.4269952953        4.1865670129       32.5356264802
  H         7.4099961251        4.5843106379       32.4486250961
  H         8.4376184242        3.1278223389       32.8194057065
  C        10.1190530220        3.3828266769       16.3947108309
  C        10.9844604593        2.5266177120       16.3685874496
  H        11.7587916034        1.7897024353       16.3334491741
  C         7.6368000545        6.0319668327       15.5163841722
  C         6.7546175467        6.8707980591       15.5326460551
  H         5.9630890202        7.5897453867       15.5673416024
  C        10.4747184911        3.7184620480       31.2399859319
  C         7.7431858162        6.1212291048       30.4899603244
  N        11.4617896473        3.0924904460       31.1709106899
  N         6.7658993487        6.7668699405       30.5618382448
 Cl         9.9139276783        7.1533732863       23.6689728185
 Cl         8.7611351033        3.0081719685       23.2110381437
  H         7.2807682747        4.5637100528       10.1570791540
  H         6.9989929282        3.0345470937       10.9923570833
  H         8.9355582419        1.9766105990        9.6795524606
 Au         9.1478900000        5.0295700000       34.3691100000
 Au         2.4880900000       -0.7379300000       36.7237130000
 Au         7.4829900000       -0.7379300000       36.7237130000
 Au         4.9854900000        0.7039700000       36.7237130000
 Au         9.9803900000        0.7039700000       36.7237130000
 Au         7.4829900000        2.1458700000       36.7237130000
 Au        12.4777900000        2.1458700000       36.7237130000
 Au         4.9854900000        3.5876700000       36.7237130000
 Au         9.9803900000        3.5876700000       36.7237130000
 Au         7.4829900000        5.0295700000       36.7237130000
 Au        12.4777900000        5.0295700000       36.7237130000
 Au         9.9803900000        6.4714700000       36.7237130000
 Au        14.9751900000        6.4714700000       36.7237130000
 Au         4.1530900000       -0.7379300000       39.0783150000
 Au         9.1478900000       -0.7379300000       39.0783150000
 Au         6.6504900000        0.7039700000       39.0783150000
 Au        11.6452900000        0.7039700000       39.0783150000
 Au         9.1478900000        2.1458700000       39.0783150000
 Au        14.1426900000        2.1458700000       39.0783150000
 Au         6.6504900000        3.5876700000       39.0783150000
 Au        11.6452900000        3.5876700000       39.0783150000
 Au         9.1478900000        5.0295700000       39.0783150000
 Au        14.1426900000        5.0295700000       39.0783150000
 Au        11.6452900000        6.4714700000       39.0783150000
 Au        16.6400900000        6.4714700000       39.0783150000
 Au         0.8231900000       -0.7379300000       41.4327120000
 Au         5.8179900000       -0.7379300000       41.4329110000
 Au         3.3205900000        0.7039700000       41.4329110000
 Au         8.3153900000        0.7039700000       41.4329110000
 Au         5.8179900000        2.1458700000       41.4329110000
 Au        10.8127900000        2.1458700000       41.4329110000
 Au         3.3205900000        3.5876700000       41.4329110000
 Au         8.3153900000        3.5876700000       41.4329110000
 Au         5.8179900000        5.0295700000       41.4329110000
 Au        10.8127900000        5.0295700000       41.4329110000
 Au         8.3153900000        6.4714700000       41.4329110000
 Au        13.3101900000        6.4714700000       41.4329110000
Au    2.936984401600001    -0.7139626776999997    65.7291386278    R1
Au    7.9318844016000005    -0.7139626776999997    65.7291386278    R1
Au    5.434384401600001    0.7279373223000007    65.7291386278    R1
Au    10.4292844016    0.7279373223000007    65.7291386278    R1
Au    7.9318844016000005    2.1698373223000003    65.7291386278    R1
Au    12.926684401600001    2.1698373223000003    65.7291386278    R1
Au    5.434384401600001    3.6116373223    65.7291386278    R1
Au    10.4292844016    3.6116373223    65.7291386278    R1
Au    7.9318844016000005    5.0535373223    65.7291386278    R1
Au    12.926684401600001    5.0535373223    65.7291386278    R1
Au    10.4292844016    6.4954373223    65.7291386278    R1
Au    15.4240844016    6.4954373223    65.7291386278    R1
Au    4.601984401600001    -0.7139626776999997    68.08373762779999    R1
Au    9.5967844016    -0.7139626776999997    68.08373762779999    R1
Au    7.099384401600001    0.7279373223000007    68.08373762779999    R1
Au    12.094184401600002    0.7279373223000007    68.08373762779999    R1
Au    9.5967844016    2.1698373223000003    68.08373762779999    R1
Au    14.5915844016    2.1698373223000003    68.08373762779999    R1
Au    7.099384401600001    3.6116373223    68.08373762779999    R1
Au    12.094184401600002    3.6116373223    68.08373762779999    R1
Au    9.5967844016    5.0535373223    68.08373762779999    R1
Au    14.5915844016    5.0535373223    68.08373762779999    R1
Au    12.094184401600002    6.4954373223    68.08373762779999    R1
Au    17.0889844016    6.4954373223    68.08373762779999    R1
Au    1.2720844016000008    -0.7139626776999997    70.43833262780001    R1
Au    6.2668844016000005    -0.7139626776999997    70.43833262780001    R1
Au    3.7694844016000006    0.7279373223000007    70.43833262780001    R1
Au    8.764284401600001    0.7279373223000007    70.43833262780001    R1
Au    6.2668844016000005    2.1698373223000003    70.43833262780001    R1
Au    11.2616844016    2.1698373223000003    70.43833262780001    R1
Au    3.7694844016000006    3.6116373223    70.43833262780001    R1
Au    8.764284401600001    3.6116373223    70.43833262780001    R1
Au    6.2668844016000005    5.0535373223    70.43833262780001    R1
Au    11.2616844016    5.0535373223    70.43833262780001    R1
Au    8.764284401600001    6.4954373223    70.43833262780001    R1
Au    13.759084401600001    6.4954373223    70.43833262780001    R1
Au    2.936984401600001    -0.7139626776999997    72.7929374278    R2
Au    7.9318844016000005    -0.7139626776999997    72.7929374278    R2
Au    5.434384401600001    0.7279373223000007    72.7929374278    R2
Au    10.4292844016    0.7279373223000007    72.7929374278    R2
Au    7.9318844016000005    2.1698373223000003    72.7929374278    R2
Au    12.926684401600001    2.1698373223000003    72.7929374278    R2
Au    5.434384401600001    3.6116373223    72.7929374278    R2
Au    10.4292844016    3.6116373223    72.7929374278    R2
Au    7.9318844016000005    5.0535373223    72.7929374278    R2
Au    12.926684401600001    5.0535373223    72.7929374278    R2
Au    10.4292844016    6.4954373223    72.7929374278    R2
Au    15.4240844016    6.4954373223    72.7929374278    R2
Au    4.601984401600001    -0.7139626776999997    75.14753692779999    R2
Au    9.5967844016    -0.7139626776999997    75.14753692779999    R2
Au    7.099384401600001    0.7279373223000007    75.14753692779999    R2
Au    12.094184401600002    0.7279373223000007    75.14753692779999    R2
Au    9.5967844016    2.1698373223000003    75.14753692779999    R2
Au    14.5915844016    2.1698373223000003    75.14753692779999    R2
Au    7.099384401600001    3.6116373223    75.14753692779999    R2
Au    12.094184401600002    3.6116373223    75.14753692779999    R2
Au    9.5967844016    5.0535373223    75.14753692779999    R2
Au    14.5915844016    5.0535373223    75.14753692779999    R2
Au    12.094184401600002    6.4954373223    75.14753692779999    R2
Au    17.0889844016    6.4954373223    75.14753692779999    R2
Au    1.2720844016000008    -0.7139626776999997    77.5021439278    R2
Au    6.2668844016000005    -0.7139626776999997    77.5021439278    R2
Au    3.7694844016000006    0.7279373223000007    77.5021439278    R2
Au    8.764284401600001    0.7279373223000007    77.5021439278    R2
Au    6.2668844016000005    2.1698373223000003    77.5021439278    R2
Au    11.2616844016    2.1698373223000003    77.5021439278    R2
Au    3.7694844016000006    3.6116373223    77.5021439278    R2
Au    8.764284401600001    3.6116373223    77.5021439278    R2
Au    6.2668844016000005    5.0535373223    77.5021439278    R2
Au    11.2616844016    5.0535373223    77.5021439278    R2
Au    8.764284401600001    6.4954373223    77.5021439278    R2
Au    13.759084401600001    6.4954373223    77.5021439278    R2
Au    2.936984401600001    -0.7139626776999997    79.8567374278    R3
Au    7.9318844016000005    -0.7139626776999997    79.8567374278    R3
Au    5.434384401600001    0.7279373223000007    79.8567374278    R3
Au    10.4292844016    0.7279373223000007    79.8567374278    R3
Au    7.9318844016000005    2.1698373223000003    79.8567374278    R3
Au    12.926684401600001    2.1698373223000003    79.8567374278    R3
Au    5.434384401600001    3.6116373223    79.8567374278    R3
Au    10.4292844016    3.6116373223    79.8567374278    R3
Au    7.9318844016000005    5.0535373223    79.8567374278    R3
Au    12.926684401600001    5.0535373223    79.8567374278    R3
Au    10.4292844016    6.4954373223    79.8567374278    R3
Au    15.4240844016    6.4954373223    79.8567374278    R3
Au    4.601984401600001    -0.7139626776999997    82.2113369278    R3
Au    9.5967844016    -0.7139626776999997    82.2113369278    R3
Au    7.099384401600001    0.7279373223000007    82.2113369278    R3
Au    12.094184401600002    0.7279373223000007    82.2113369278    R3
Au    9.5967844016    2.1698373223000003    82.2113369278    R3
Au    14.5915844016    2.1698373223000003    82.2113369278    R3
Au    7.099384401600001    3.6116373223    82.2113369278    R3
Au    12.094184401600002    3.6116373223    82.2113369278    R3
Au    9.5967844016    5.0535373223    82.2113369278    R3
Au    14.5915844016    5.0535373223    82.2113369278    R3
Au    12.094184401600002    6.4954373223    82.2113369278    R3
Au    17.0889844016    6.4954373223    82.2113369278    R3
Au    1.2720844016000008    -0.7139626776999997    84.56594392779999    R3
Au    6.2668844016000005    -0.7139626776999997    84.56594392779999    R3
Au    3.7694844016000006    0.7279373223000007    84.56594392779999    R3
Au    8.764284401600001    0.7279373223000007    84.56594392779999    R3
Au    6.2668844016000005    2.1698373223000003    84.56594392779999    R3
Au    11.2616844016    2.1698373223000003    84.56594392779999    R3
Au    3.7694844016000006    3.6116373223    84.56594392779999    R3
Au    8.764284401600001    3.6116373223    84.56594392779999    R3
Au    6.2668844016000005    5.0535373223    84.56594392779999    R3
Au    11.2616844016    5.0535373223    84.56594392779999    R3
Au    8.764284401600001    6.4954373223    84.56594392779999    R3
Au    13.759084401600001    6.4954373223    84.56594392779999    R3