     135
 i =      332, E =     -2657.3399829492
 Au         1.6649000000        0.0000000000        0.0000000000
 Au         6.6598000000        0.0000000000        0.0000000000
 Au         4.1623000000        1.4419000000        0.0000000000
 Au         9.1572000000        1.4419000000        0.0000000000
 Au         6.6598000000        2.8838000000        0.0000000000
 Au        11.6546000000        2.8838000000        0.0000000000
 Au         4.1623000000        4.3256000000        0.0000000000
 Au         9.1572000000        4.3256000000        0.0000000000
 Au         6.6598000000        5.7675000000        0.0000000000
 Au        11.6546000000        5.7675000000        0.0000000000
 Au         9.1572000000        7.2094000000        0.0000000000
 Au        14.1520000000        7.2094000000        0.0000000000
 Au         3.3299000000        0.0000000000        2.3546000000
 Au         8.3247000000        0.0000000000        2.3546000000
 Au         5.8273000000        1.4419000000        2.3546000000
 Au        10.8221000000        1.4419000000        2.3546000000
 Au         8.3247000000        2.8838000000        2.3546000000
 Au        13.3195000000        2.8838000000        2.3546000000
 Au         5.8273000000        4.3256000000        2.3546000000
 Au        10.8221000000        4.3256000000        2.3546000000
 Au         8.3247000000        5.7675000000        2.3546000000
 Au        13.3195000000        5.7675000000        2.3546000000
 Au        10.8221000000        7.2094000000        2.3546000000
 Au        15.8169000000        7.2094000000        2.3546000000
 Au         0.0000000000        0.0000000000        4.7091000000
 Au         4.9948000000        0.0000000000        4.7091000000
 Au         2.4974000000        1.4419000000        4.7091000000
 Au         7.4922000000        1.4419000000        4.7091000000
 Au         4.9948000000        2.8838000000        4.7091000000
 Au         9.9896000000        2.8838000000        4.7091000000
 Au         2.4974000000        4.3256000000        4.7091000000
 Au         7.4922000000        4.3256000000        4.7091000000
 Au         4.9948000000        5.7675000000        4.7091000000
 Au         9.9896000000        5.7675000000        4.7091000000
 Au         7.4922000000        7.2094000000        4.7091000000
 Au        12.4870000000        7.2094000000        4.7091000000
  S         9.0474792911        2.0489117840        7.0006501081
  C         8.5989161177        3.1803112879        8.2864933318
  C         8.6896497288        2.8079859324        9.5854924309
  H         8.2219100982        4.1622167846        7.9914177596
  C         8.2181353770        3.5962009015       10.7818012096
  C         9.1733760941        3.5987327457       12.0031910859
  C         8.4801315299        4.0487531429       13.3068487968
  H        10.0367762805        4.2504677724       11.7881539464
  H         9.5855772605        2.5844440253       12.1423179622
  C         9.4391463520        4.1722352482       14.5122509654
  H         7.6793438023        3.3304201546       13.5511902824
  H         7.9797896364        5.0166722115       13.1431919443
  C         8.7878864052        4.5360815456       15.8486795616
  H        10.1919579378        4.9475421964       14.2811737796
  H         9.9972405585        3.2342733233       14.6481377779
  C         9.1268811135        3.9363789534       17.0446340337
  C         8.4546452371        4.2464299394       18.3831606207
  C         9.3966116192        4.5413944469       19.5766913921
  H         7.8441152119        3.3620246803       18.6419965993
  H         7.7511575114        5.0785425972       18.2368510351
  C         8.6731991280        4.5348738036       20.9413230089
  H         9.8957186424        5.5115015684       19.4146231539
  H        10.1954686095        3.7824719608       19.5962724391
  C         9.6324422316        4.7702429845       22.1358355501
  H         8.1709467133        3.5632365059       21.0706815607
  H         7.8799464228        5.3002465451       20.9570461873
  C         9.0816004339        4.4896999618       23.5154627705
  H        10.0013696946        5.8049158831       22.1196476671
  H        10.5149435213        4.1194006664       22.0041933030
  C         9.0074508882        5.3080449934       24.5911951431
  C         8.4527087948        5.0230530087       25.9678776452
  C         9.4088937054        5.2323855609       27.1705149373
  H         8.0726914852        3.9921017349       25.9745491512
  H         7.5766193638        5.6815190915       26.1062163185
  C         8.6817872444        5.0502219841       28.5199493699
  H         9.8385393366        6.2452242371       27.1202553045
  H        10.2527132660        4.5277899993       27.0932511928
  C         9.5604526415        5.3558546650       29.7608882049
  H         8.2955054463        4.0208942103       28.6006819510
  H         7.8004909756        5.7118131592       28.5392475236
  C         8.8252854571        5.2522071579       31.0907375881
  H         9.9534964289        6.3845841110       29.6688771853
  H        10.4340026213        4.6888848663       29.7899179197
  C         9.2502892441        4.5287593978       32.1972776477
  C         8.4661635358        4.3086719358       33.4273063714
  H         7.4507140081        4.7130665326       33.3576496491
  H         8.4613429043        3.2462060378       33.7056408855
  C        10.1104612128        2.9122647381       17.0763275632
  C        10.9453492063        2.0321500941       17.1811268017
  H        11.6908547937        1.2697142010       17.2637005613
  C         7.8146659615        5.5689128249       15.8114441014
  C         6.9889284836        6.4571666715       15.7024026531
  H         6.2494019707        7.2253107396       15.6204667075
  C        10.5009582018        3.8406927207       32.1055115687
  C         7.5902264587        5.9479574403       31.1742536595
  N        11.5220695755        3.2696742457       32.0586035837
  N         6.5749828358        6.5356972033       31.1932705708
 Cl         9.5344305839        6.9782575663       24.3894292691
 Cl         8.5608293188        2.8173433580       23.7216219824
  H         7.9698010228        4.6291280689       10.4898413096
  H         7.2640689652        3.1386759873       11.1094668463
  H         9.0791877779        1.8065693280        9.8037942448
 Au         9.1478900000        5.0295700000       35.3691100000
 Au         2.4880900000       -0.7379300000       37.7237130000
 Au         7.4829900000       -0.7379300000       37.7237130000
 Au         4.9854900000        0.7039700000       37.7237130000
 Au         9.9803900000        0.7039700000       37.7237130000
 Au         7.4829900000        2.1458700000       37.7237130000
 Au        12.4777900000        2.1458700000       37.7237130000
 Au         4.9854900000        3.5876700000       37.7237130000
 Au         9.9803900000        3.5876700000       37.7237130000
 Au         7.4829900000        5.0295700000       37.7237130000
 Au        12.4777900000        5.0295700000       37.7237130000
 Au         9.9803900000        6.4714700000       37.7237130000
 Au        14.9751900000        6.4714700000       37.7237130000
 Au         4.1530900000       -0.7379300000       40.0783150000
 Au         9.1478900000       -0.7379300000       40.0783150000
 Au         6.6504900000        0.7039700000       40.0783150000
 Au        11.6452900000        0.7039700000       40.0783150000
 Au         9.1478900000        2.1458700000       40.0783150000
 Au        14.1426900000        2.1458700000       40.0783150000
 Au         6.6504900000        3.5876700000       40.0783150000
 Au        11.6452900000        3.5876700000       40.0783150000
 Au         9.1478900000        5.0295700000       40.0783150000
 Au        14.1426900000        5.0295700000       40.0783150000
 Au        11.6452900000        6.4714700000       40.0783150000
 Au        16.6400900000        6.4714700000       40.0783150000
 Au         0.8231900000       -0.7379300000       42.4327120000
 Au         5.8179900000       -0.7379300000       42.4329110000
 Au         3.3205900000        0.7039700000       42.4329110000
 Au         8.3153900000        0.7039700000       42.4329110000
 Au         5.8179900000        2.1458700000       42.4329110000
 Au        10.8127900000        2.1458700000       42.4329110000
 Au         3.3205900000        3.5876700000       42.4329110000
 Au         8.3153900000        3.5876700000       42.4329110000
 Au         5.8179900000        5.0295700000       42.4329110000
 Au        10.8127900000        5.0295700000       42.4329110000
 Au         8.3153900000        6.4714700000       42.4329110000
 Au        13.3101900000        6.4714700000       42.4329110000
 Au    2.936984401600001    -0.7139626776999997    65.7291386278    R1
Au    7.9318844016000005    -0.7139626776999997    65.7291386278    R1
Au    5.434384401600001    0.7279373223000007    65.7291386278    R1
Au    10.4292844016    0.7279373223000007    65.7291386278    R1
Au    7.9318844016000005    2.1698373223000003    65.7291386278    R1
Au    12.926684401600001    2.1698373223000003    65.7291386278    R1
Au    5.434384401600001    3.6116373223    65.7291386278    R1
Au    10.4292844016    3.6116373223    65.7291386278    R1
Au    7.9318844016000005    5.0535373223    65.7291386278    R1
Au    12.926684401600001    5.0535373223    65.7291386278    R1
Au    10.4292844016    6.4954373223    65.7291386278    R1
Au    15.4240844016    6.4954373223    65.7291386278    R1
Au    4.601984401600001    -0.7139626776999997    68.08373762779999    R1
Au    9.5967844016    -0.7139626776999997    68.08373762779999    R1
Au    7.099384401600001    0.7279373223000007    68.08373762779999    R1
Au    12.094184401600002    0.7279373223000007    68.08373762779999    R1
Au    9.5967844016    2.1698373223000003    68.08373762779999    R1
Au    14.5915844016    2.1698373223000003    68.08373762779999    R1
Au    7.099384401600001    3.6116373223    68.08373762779999    R1
Au    12.094184401600002    3.6116373223    68.08373762779999    R1
Au    9.5967844016    5.0535373223    68.08373762779999    R1
Au    14.5915844016    5.0535373223    68.08373762779999    R1
Au    12.094184401600002    6.4954373223    68.08373762779999    R1
Au    17.0889844016    6.4954373223    68.08373762779999    R1
Au    1.2720844016000008    -0.7139626776999997    70.43833262780001    R1
Au    6.2668844016000005    -0.7139626776999997    70.43833262780001    R1
Au    3.7694844016000006    0.7279373223000007    70.43833262780001    R1
Au    8.764284401600001    0.7279373223000007    70.43833262780001    R1
Au    6.2668844016000005    2.1698373223000003    70.43833262780001    R1
Au    11.2616844016    2.1698373223000003    70.43833262780001    R1
Au    3.7694844016000006    3.6116373223    70.43833262780001    R1
Au    8.764284401600001    3.6116373223    70.43833262780001    R1
Au    6.2668844016000005    5.0535373223    70.43833262780001    R1
Au    11.2616844016    5.0535373223    70.43833262780001    R1
Au    8.764284401600001    6.4954373223    70.43833262780001    R1
Au    13.759084401600001    6.4954373223    70.43833262780001    R1
Au    2.936984401600001    -0.7139626776999997    72.7929374278    R2
Au    7.9318844016000005    -0.7139626776999997    72.7929374278    R2
Au    5.434384401600001    0.7279373223000007    72.7929374278    R2
Au    10.4292844016    0.7279373223000007    72.7929374278    R2
Au    7.9318844016000005    2.1698373223000003    72.7929374278    R2
Au    12.926684401600001    2.1698373223000003    72.7929374278    R2
Au    5.434384401600001    3.6116373223    72.7929374278    R2
Au    10.4292844016    3.6116373223    72.7929374278    R2
Au    7.9318844016000005    5.0535373223    72.7929374278    R2
Au    12.926684401600001    5.0535373223    72.7929374278    R2
Au    10.4292844016    6.4954373223    72.7929374278    R2
Au    15.4240844016    6.4954373223    72.7929374278    R2
Au    4.601984401600001    -0.7139626776999997    75.14753692779999    R2
Au    9.5967844016    -0.7139626776999997    75.14753692779999    R2
Au    7.099384401600001    0.7279373223000007    75.14753692779999    R2
Au    12.094184401600002    0.7279373223000007    75.14753692779999    R2
Au    9.5967844016    2.1698373223000003    75.14753692779999    R2
Au    14.5915844016    2.1698373223000003    75.14753692779999    R2
Au    7.099384401600001    3.6116373223    75.14753692779999    R2
Au    12.094184401600002    3.6116373223    75.14753692779999    R2
Au    9.5967844016    5.0535373223    75.14753692779999    R2
Au    14.5915844016    5.0535373223    75.14753692779999    R2
Au    12.094184401600002    6.4954373223    75.14753692779999    R2
Au    17.0889844016    6.4954373223    75.14753692779999    R2
Au    1.2720844016000008    -0.7139626776999997    77.5021439278    R2
Au    6.2668844016000005    -0.7139626776999997    77.5021439278    R2
Au    3.7694844016000006    0.7279373223000007    77.5021439278    R2
Au    8.764284401600001    0.7279373223000007    77.5021439278    R2
Au    6.2668844016000005    2.1698373223000003    77.5021439278    R2
Au    11.2616844016    2.1698373223000003    77.5021439278    R2
Au    3.7694844016000006    3.6116373223    77.5021439278    R2
Au    8.764284401600001    3.6116373223    77.5021439278    R2
Au    6.2668844016000005    5.0535373223    77.5021439278    R2
Au    11.2616844016    5.0535373223    77.5021439278    R2
Au    8.764284401600001    6.4954373223    77.5021439278    R2
Au    13.759084401600001    6.4954373223    77.5021439278    R2
Au    2.936984401600001    -0.7139626776999997    79.8567374278    R3
Au    7.9318844016000005    -0.7139626776999997    79.8567374278    R3
Au    5.434384401600001    0.7279373223000007    79.8567374278    R3
Au    10.4292844016    0.7279373223000007    79.8567374278    R3
Au    7.9318844016000005    2.1698373223000003    79.8567374278    R3
Au    12.926684401600001    2.1698373223000003    79.8567374278    R3
Au    5.434384401600001    3.6116373223    79.8567374278    R3
Au    10.4292844016    3.6116373223    79.8567374278    R3
Au    7.9318844016000005    5.0535373223    79.8567374278    R3
Au    12.926684401600001    5.0535373223    79.8567374278    R3
Au    10.4292844016    6.4954373223    79.8567374278    R3
Au    15.4240844016    6.4954373223    79.8567374278    R3
Au    4.601984401600001    -0.7139626776999997    82.2113369278    R3
Au    9.5967844016    -0.7139626776999997    82.2113369278    R3
Au    7.099384401600001    0.7279373223000007    82.2113369278    R3
Au    12.094184401600002    0.7279373223000007    82.2113369278    R3
Au    9.5967844016    2.1698373223000003    82.2113369278    R3
Au    14.5915844016    2.1698373223000003    82.2113369278    R3
Au    7.099384401600001    3.6116373223    82.2113369278    R3
Au    12.094184401600002    3.6116373223    82.2113369278    R3
Au    9.5967844016    5.0535373223    82.2113369278    R3
Au    14.5915844016    5.0535373223    82.2113369278    R3
Au    12.094184401600002    6.4954373223    82.2113369278    R3
Au    17.0889844016    6.4954373223    82.2113369278    R3
Au    1.2720844016000008    -0.7139626776999997    84.56594392779999    R3
Au    6.2668844016000005    -0.7139626776999997    84.56594392779999    R3
Au    3.7694844016000006    0.7279373223000007    84.56594392779999    R3
Au    8.764284401600001    0.7279373223000007    84.56594392779999    R3
Au    6.2668844016000005    2.1698373223000003    84.56594392779999    R3
Au    11.2616844016    2.1698373223000003    84.56594392779999    R3
Au    3.7694844016000006    3.6116373223    84.56594392779999    R3
Au    8.764284401600001    3.6116373223    84.56594392779999    R3
Au    6.2668844016000005    5.0535373223    84.56594392779999    R3
Au    11.2616844016    5.0535373223    84.56594392779999    R3
Au    8.764284401600001    6.4954373223    84.56594392779999    R3
Au    13.759084401600001    6.4954373223    84.56594392779999    R3