     135
 i =      137, E =     -2657.3047779827
 Au         1.6649000000        0.0000000000        0.0000000000
 Au         6.6598000000        0.0000000000        0.0000000000
 Au         4.1623000000        1.4419000000        0.0000000000
 Au         9.1572000000        1.4419000000        0.0000000000
 Au         6.6598000000        2.8838000000        0.0000000000
 Au        11.6546000000        2.8838000000        0.0000000000
 Au         4.1623000000        4.3256000000        0.0000000000
 Au         9.1572000000        4.3256000000        0.0000000000
 Au         6.6598000000        5.7675000000        0.0000000000
 Au        11.6546000000        5.7675000000        0.0000000000
 Au         9.1572000000        7.2094000000        0.0000000000
 Au        14.1520000000        7.2094000000        0.0000000000
 Au         3.3299000000        0.0000000000        2.3546000000
 Au         8.3247000000        0.0000000000        2.3546000000
 Au         5.8273000000        1.4419000000        2.3546000000
 Au        10.8221000000        1.4419000000        2.3546000000
 Au         8.3247000000        2.8838000000        2.3546000000
 Au        13.3195000000        2.8838000000        2.3546000000
 Au         5.8273000000        4.3256000000        2.3546000000
 Au        10.8221000000        4.3256000000        2.3546000000
 Au         8.3247000000        5.7675000000        2.3546000000
 Au        13.3195000000        5.7675000000        2.3546000000
 Au        10.8221000000        7.2094000000        2.3546000000
 Au        15.8169000000        7.2094000000        2.3546000000
 Au         0.0000000000        0.0000000000        4.7091000000
 Au         4.9948000000        0.0000000000        4.7091000000
 Au         2.4974000000        1.4419000000        4.7091000000
 Au         7.4922000000        1.4419000000        4.7091000000
 Au         4.9948000000        2.8838000000        4.7091000000
 Au         9.9896000000        2.8838000000        4.7091000000
 Au         2.4974000000        4.3256000000        4.7091000000
 Au         7.4922000000        4.3256000000        4.7091000000
 Au         4.9948000000        5.7675000000        4.7091000000
 Au         9.9896000000        5.7675000000        4.7091000000
 Au         7.4922000000        7.2094000000        4.7091000000
 Au        12.4870000000        7.2094000000        4.7091000000
  S         8.8828058815        1.9479901832        6.8751308201
  C         8.1704921286        3.1326397539        7.9718207859
  C         8.2136891708        2.9023850265        9.2972959078
  H         7.6992737012        4.0201514125        7.5419724850
  C         7.6330631584        3.7685903903       10.3719115832
  C         8.6832061001        4.2081716959       11.4141042357
  C         8.0651000360        4.6315566533       12.7508329888
  H         9.2927745662        5.0238861847       10.9915889944
  H         9.3813943566        3.3738368171       11.5984498536
  C         9.1229501100        5.1330927852       13.7537217743
  H         7.5374060538        3.7673598356       13.1885832248
  H         7.3021651891        5.4112352478       12.5946149333
  C         8.6038194702        5.2298644673       15.1745306659
  H         9.4881104594        6.1227620486       13.4324606876
  H         9.9860496474        4.4518211235       13.7468310210
  C         9.0503088150        4.4095204305       16.1834233371
  C         8.4922458180        4.4407239019       17.5929064982
  C         9.5478847178        4.6302759164       18.6947995442
  H         7.9691862098        3.4845078369       17.7729563151
  H         7.7325222131        5.2330245464       17.6528604925
  C         8.9330999644        4.5878053598       20.0968939350
  H        10.0706887941        5.5889083747       18.5408883241
  H        10.3120292115        3.8417849548       18.6019425473
  C         9.9930461981        4.6665957446       21.2125687781
  H         8.3529031882        3.6586592159       20.2166163873
  H         8.2194859938        5.4188101151       20.2213453054
  C         9.4126372170        4.6142779769       22.5940175473
  H        10.5682184131        5.5977451187       21.1143201915
  H        10.7043905423        3.8313534917       21.0970371828
  C         9.3611085698        5.5943220430       23.5182294180
  C         8.7264012216        5.5560866409       24.8749201097
  C         9.7096661114        5.6154958156       26.0589480650
  H         8.1216896304        4.6413241892       24.9492964656
  H         8.0287560239        6.4073215682       24.9501434081
  C         8.9557922878        5.5510909821       27.3893360384
  H        10.3031078142        6.5419784305       26.0029779767
  H        10.4227885506        4.7780086248       25.9876599583
  C         9.8823287088        5.6700078436       28.6138604546
  H         8.3981628141        4.6022101956       27.4509558159
  H         8.2014443853        6.3535333706       27.4261066771
  C         9.1621899622        5.5217209093       29.9253621717
  H        10.3809138799        6.6582384694       28.5852655870
  H        10.6889096424        4.9237103047       28.5623817521
  C         9.6506005519        4.7317045001       31.0167233725
  C         8.9667241194        4.5095464611       32.1949170299
  H         7.9826774713        4.9473852426       32.3568674103
  H         9.3905592357        3.8771058688       32.9710367817
  C        10.0690865585        3.4496200345       15.9376938315
  C        10.9465427433        2.6158519813       15.8039761782
  H        11.7352168781        1.9053015725       15.6699542580
  C         7.5905825772        6.1962057169       15.4082185155
  C         6.7260539495        7.0443025964       15.5330708049
  H         5.9503227738        7.7687648635       15.6630930823
  C        10.9428203567        4.1208031407       30.8679576484
  C         7.9308590678        6.1756167671       30.0794060994
  N        11.9982537214        3.6284170688       30.7600964124
  N         6.8977440168        6.7321049713       30.1840949745
 Cl        10.0893546175        7.1504673266       23.1304120278
 Cl         8.7054928576        3.0522639710       22.9964499625
  H         7.1259563058        4.6451212774        9.9398534953
  H         6.8542707061        3.1808600818       10.8932960967
  H         8.7109428704        1.9887614644        9.6438958203
 Au         9.1478900000        5.0295700000       36.3691100000
 Au         2.4880900000       -0.7379300000       38.7237130000
 Au         7.4829900000       -0.7379300000       38.7237130000
 Au         4.9854900000        0.7039700000       38.7237130000
 Au         9.9803900000        0.7039700000       38.7237130000
 Au         7.4829900000        2.1458700000       38.7237130000
 Au        12.4777900000        2.1458700000       38.7237130000
 Au         4.9854900000        3.5876700000       38.7237130000
 Au         9.9803900000        3.5876700000       38.7237130000
 Au         7.4829900000        5.0295700000       38.7237130000
 Au        12.4777900000        5.0295700000       38.7237130000
 Au         9.9803900000        6.4714700000       38.7237130000
 Au        14.9751900000        6.4714700000       38.7237130000
 Au         4.1530900000       -0.7379300000       41.0783150000
 Au         9.1478900000       -0.7379300000       41.0783150000
 Au         6.6504900000        0.7039700000       41.0783150000
 Au        11.6452900000        0.7039700000       41.0783150000
 Au         9.1478900000        2.1458700000       41.0783150000
 Au        14.1426900000        2.1458700000       41.0783150000
 Au         6.6504900000        3.5876700000       41.0783150000
 Au        11.6452900000        3.5876700000       41.0783150000
 Au         9.1478900000        5.0295700000       41.0783150000
 Au        14.1426900000        5.0295700000       41.0783150000
 Au        11.6452900000        6.4714700000       41.0783150000
 Au        16.6400900000        6.4714700000       41.0783150000
 Au         0.8231900000       -0.7379300000       43.4327120000
 Au         5.8179900000       -0.7379300000       43.4329110000
 Au         3.3205900000        0.7039700000       43.4329110000
 Au         8.3153900000        0.7039700000       43.4329110000
 Au         5.8179900000        2.1458700000       43.4329110000
 Au        10.8127900000        2.1458700000       43.4329110000
 Au         3.3205900000        3.5876700000       43.4329110000
 Au         8.3153900000        3.5876700000       43.4329110000
 Au         5.8179900000        5.0295700000       43.4329110000
 Au        10.8127900000        5.0295700000       43.4329110000
 Au         8.3153900000        6.4714700000       43.4329110000
 Au        13.3101900000        6.4714700000       43.4329110000
 Au    2.936984401600001    -0.7139626776999997    65.7291386278    R1
Au    7.9318844016000005    -0.7139626776999997    65.7291386278    R1
Au    5.434384401600001    0.7279373223000007    65.7291386278    R1
Au    10.4292844016    0.7279373223000007    65.7291386278    R1
Au    7.9318844016000005    2.1698373223000003    65.7291386278    R1
Au    12.926684401600001    2.1698373223000003    65.7291386278    R1
Au    5.434384401600001    3.6116373223    65.7291386278    R1
Au    10.4292844016    3.6116373223    65.7291386278    R1
Au    7.9318844016000005    5.0535373223    65.7291386278    R1
Au    12.926684401600001    5.0535373223    65.7291386278    R1
Au    10.4292844016    6.4954373223    65.7291386278    R1
Au    15.4240844016    6.4954373223    65.7291386278    R1
Au    4.601984401600001    -0.7139626776999997    68.08373762779999    R1
Au    9.5967844016    -0.7139626776999997    68.08373762779999    R1
Au    7.099384401600001    0.7279373223000007    68.08373762779999    R1
Au    12.094184401600002    0.7279373223000007    68.08373762779999    R1
Au    9.5967844016    2.1698373223000003    68.08373762779999    R1
Au    14.5915844016    2.1698373223000003    68.08373762779999    R1
Au    7.099384401600001    3.6116373223    68.08373762779999    R1
Au    12.094184401600002    3.6116373223    68.08373762779999    R1
Au    9.5967844016    5.0535373223    68.08373762779999    R1
Au    14.5915844016    5.0535373223    68.08373762779999    R1
Au    12.094184401600002    6.4954373223    68.08373762779999    R1
Au    17.0889844016    6.4954373223    68.08373762779999    R1
Au    1.2720844016000008    -0.7139626776999997    70.43833262780001    R1
Au    6.2668844016000005    -0.7139626776999997    70.43833262780001    R1
Au    3.7694844016000006    0.7279373223000007    70.43833262780001    R1
Au    8.764284401600001    0.7279373223000007    70.43833262780001    R1
Au    6.2668844016000005    2.1698373223000003    70.43833262780001    R1
Au    11.2616844016    2.1698373223000003    70.43833262780001    R1
Au    3.7694844016000006    3.6116373223    70.43833262780001    R1
Au    8.764284401600001    3.6116373223    70.43833262780001    R1
Au    6.2668844016000005    5.0535373223    70.43833262780001    R1
Au    11.2616844016    5.0535373223    70.43833262780001    R1
Au    8.764284401600001    6.4954373223    70.43833262780001    R1
Au    13.759084401600001    6.4954373223    70.43833262780001    R1
Au    2.936984401600001    -0.7139626776999997    72.7929374278    R2
Au    7.9318844016000005    -0.7139626776999997    72.7929374278    R2
Au    5.434384401600001    0.7279373223000007    72.7929374278    R2
Au    10.4292844016    0.7279373223000007    72.7929374278    R2
Au    7.9318844016000005    2.1698373223000003    72.7929374278    R2
Au    12.926684401600001    2.1698373223000003    72.7929374278    R2
Au    5.434384401600001    3.6116373223    72.7929374278    R2
Au    10.4292844016    3.6116373223    72.7929374278    R2
Au    7.9318844016000005    5.0535373223    72.7929374278    R2
Au    12.926684401600001    5.0535373223    72.7929374278    R2
Au    10.4292844016    6.4954373223    72.7929374278    R2
Au    15.4240844016    6.4954373223    72.7929374278    R2
Au    4.601984401600001    -0.7139626776999997    75.14753692779999    R2
Au    9.5967844016    -0.7139626776999997    75.14753692779999    R2
Au    7.099384401600001    0.7279373223000007    75.14753692779999    R2
Au    12.094184401600002    0.7279373223000007    75.14753692779999    R2
Au    9.5967844016    2.1698373223000003    75.14753692779999    R2
Au    14.5915844016    2.1698373223000003    75.14753692779999    R2
Au    7.099384401600001    3.6116373223    75.14753692779999    R2
Au    12.094184401600002    3.6116373223    75.14753692779999    R2
Au    9.5967844016    5.0535373223    75.14753692779999    R2
Au    14.5915844016    5.0535373223    75.14753692779999    R2
Au    12.094184401600002    6.4954373223    75.14753692779999    R2
Au    17.0889844016    6.4954373223    75.14753692779999    R2
Au    1.2720844016000008    -0.7139626776999997    77.5021439278    R2
Au    6.2668844016000005    -0.7139626776999997    77.5021439278    R2
Au    3.7694844016000006    0.7279373223000007    77.5021439278    R2
Au    8.764284401600001    0.7279373223000007    77.5021439278    R2
Au    6.2668844016000005    2.1698373223000003    77.5021439278    R2
Au    11.2616844016    2.1698373223000003    77.5021439278    R2
Au    3.7694844016000006    3.6116373223    77.5021439278    R2
Au    8.764284401600001    3.6116373223    77.5021439278    R2
Au    6.2668844016000005    5.0535373223    77.5021439278    R2
Au    11.2616844016    5.0535373223    77.5021439278    R2
Au    8.764284401600001    6.4954373223    77.5021439278    R2
Au    13.759084401600001    6.4954373223    77.5021439278    R2
Au    2.936984401600001    -0.7139626776999997    79.8567374278    R3
Au    7.9318844016000005    -0.7139626776999997    79.8567374278    R3
Au    5.434384401600001    0.7279373223000007    79.8567374278    R3
Au    10.4292844016    0.7279373223000007    79.8567374278    R3
Au    7.9318844016000005    2.1698373223000003    79.8567374278    R3
Au    12.926684401600001    2.1698373223000003    79.8567374278    R3
Au    5.434384401600001    3.6116373223    79.8567374278    R3
Au    10.4292844016    3.6116373223    79.8567374278    R3
Au    7.9318844016000005    5.0535373223    79.8567374278    R3
Au    12.926684401600001    5.0535373223    79.8567374278    R3
Au    10.4292844016    6.4954373223    79.8567374278    R3
Au    15.4240844016    6.4954373223    79.8567374278    R3
Au    4.601984401600001    -0.7139626776999997    82.2113369278    R3
Au    9.5967844016    -0.7139626776999997    82.2113369278    R3
Au    7.099384401600001    0.7279373223000007    82.2113369278    R3
Au    12.094184401600002    0.7279373223000007    82.2113369278    R3
Au    9.5967844016    2.1698373223000003    82.2113369278    R3
Au    14.5915844016    2.1698373223000003    82.2113369278    R3
Au    7.099384401600001    3.6116373223    82.2113369278    R3
Au    12.094184401600002    3.6116373223    82.2113369278    R3
Au    9.5967844016    5.0535373223    82.2113369278    R3
Au    14.5915844016    5.0535373223    82.2113369278    R3
Au    12.094184401600002    6.4954373223    82.2113369278    R3
Au    17.0889844016    6.4954373223    82.2113369278    R3
Au    1.2720844016000008    -0.7139626776999997    84.56594392779999    R3
Au    6.2668844016000005    -0.7139626776999997    84.56594392779999    R3
Au    3.7694844016000006    0.7279373223000007    84.56594392779999    R3
Au    8.764284401600001    0.7279373223000007    84.56594392779999    R3
Au    6.2668844016000005    2.1698373223000003    84.56594392779999    R3
Au    11.2616844016    2.1698373223000003    84.56594392779999    R3
Au    3.7694844016000006    3.6116373223    84.56594392779999    R3
Au    8.764284401600001    3.6116373223    84.56594392779999    R3
Au    6.2668844016000005    5.0535373223    84.56594392779999    R3
Au    11.2616844016    5.0535373223    84.56594392779999    R3
Au    8.764284401600001    6.4954373223    84.56594392779999    R3
Au    13.759084401600001    6.4954373223    84.56594392779999    R3