      98
 i =      410, E =     -1427.5815547500
 Au         1.6649000000        0.0000000000        0.0000000000
 Au         6.6598000000        0.0000000000        0.0000000000
 Au         4.1623000000        1.4419000000        0.0000000000
 Au         9.1572000000        1.4419000000        0.0000000000
 Au         6.6598000000        2.8838000000        0.0000000000
 Au        11.6546000000        2.8838000000        0.0000000000
 Au         4.1623000000        4.3256000000        0.0000000000
 Au         9.1572000000        4.3256000000        0.0000000000
 Au         6.6598000000        5.7675000000        0.0000000000
 Au        11.6546000000        5.7675000000        0.0000000000
 Au         9.1572000000        7.2094000000        0.0000000000
 Au        14.1520000000        7.2094000000        0.0000000000
 Au         3.3299000000        0.0000000000        2.3546000000
 Au         8.3247000000        0.0000000000        2.3546000000
 Au         5.8273000000        1.4419000000        2.3546000000
 Au        10.8221000000        1.4419000000        2.3546000000
 Au         8.3247000000        2.8838000000        2.3546000000
 Au        13.3195000000        2.8838000000        2.3546000000
 Au         5.8273000000        4.3256000000        2.3546000000
 Au        10.8221000000        4.3256000000        2.3546000000
 Au         8.3247000000        5.7675000000        2.3546000000
 Au        13.3195000000        5.7675000000        2.3546000000
 Au        10.8221000000        7.2094000000        2.3546000000
 Au        15.8169000000        7.2094000000        2.3546000000
 Au         0.0000000000        0.0000000000        4.7091000000
 Au         4.9948000000        0.0000000000        4.7091000000
 Au         2.4974000000        1.4419000000        4.7091000000
 Au         7.4922000000        1.4419000000        4.7091000000
 Au         4.9948000000        2.8838000000        4.7091000000
 Au         9.9896000000        2.8838000000        4.7091000000
 Au         2.4974000000        4.3256000000        4.7091000000
 Au         7.4922000000        4.3256000000        4.7091000000
 Au         4.9948000000        5.7675000000        4.7091000000
 Au         9.9896000000        5.7675000000        4.7091000000
 Au         7.4922000000        7.2094000000        4.7091000000
 Au        12.4870000000        7.2094000000        4.7091000000
  S         8.8676105816        1.8754621859        6.8636395655
  C         8.0888275514        2.9793632057        7.9980979399
  C         8.2945471405        2.8025328008        9.3166164880
  H         7.4379724386        3.7606688491        7.5985074486
  C         7.6718037071        3.5879398934       10.4280744388
  C         8.7111188924        4.1705240961       11.4075140435
  C         8.1073585385        4.5340251767       12.7662192046
  H         9.1949728324        5.0495920219       10.9510435271
  H         9.5131839424        3.4295130134       11.5659859837
  C         9.1481079055        5.1205558427       13.7379993302
  H         7.6704250346        3.6259051932       13.2150459156
  H         7.2768905227        5.2475076237       12.6406356299
  C         8.6191016631        5.2702406051       15.1495153891
  H         9.4743748288        6.1078297489       13.3706535060
  H        10.0366813902        4.4730532273       13.7641636662
  C         9.0296351680        4.4708390369       16.1894197542
  C         8.4724740648        4.5927641904       17.5951688837
  C         9.5375195652        4.6253027590       18.7015406050
  H         7.7991444549        3.7357934742       17.7772190586
  H         7.8452071579        5.4943566655       17.6440491413
  C         8.9193739047        4.6965425074       20.0994073444
  H        10.2076766780        5.4862830628       18.5419723561
  H        10.1675637315        3.7249619722       18.6262819940
  C         9.9742850860        4.5682650610       21.2154382537
  H         8.1763419898        3.8910136555       20.2133065218
  H         8.3722378481        5.6452240226       20.2241759401
  C         9.3884818027        4.5725666859       22.5952334192
  H        10.7010871675        5.3893060751       21.1420383114
  H        10.5356052482        3.6296094414       21.0746443800
  C         9.4661037211        5.5350863546       23.5350766869
  C         8.8261241820        5.5617213058       24.8900454115
  C         9.8020110898        5.3882660616       26.0689828740
  H         8.0600325841        4.7747303293       24.9275961249
  H         8.3024922224        6.5258533863       24.9991348765
  C         9.0791490199        5.5155341072       27.4128380361
  H        10.5962459947        6.1487407781       26.0013416473
  H        10.2964455434        4.4064904272       25.9902634685
  C        10.0228185129        5.3751442411       28.6186290783
  H         8.2865183694        4.7531751890       27.4885346687
  H         8.5709244758        6.4919167103       27.4616978637
  C         9.3572065689        5.5725363729       29.9513804319
  H        10.8374486127        6.1210882062       28.5218643828
  H        10.5207410574        4.3934348265       28.6138777522
  C         9.7238055679        4.8446695834       31.1316381223
  C         9.1478865495        5.0295702259       32.3691138825
  H         8.3622555706        5.7709741623       32.5039640379
  H         9.4651235781        4.4428360203       33.2266039977
  C        10.0020703984        3.4564958617       15.9796769735
  C        10.8350494478        2.5746437678       15.8748457574
  H        11.5883432608        1.8221383823       15.7704709170
  C         7.6218888373        6.2618403270       15.3406156104
  C         6.7595726755        7.1163839113       15.4309942731
  H         5.9808782578        7.8427074124       15.5281603342
  C        10.7670793523        3.8654870209       31.0090357101
  C         8.3414644178        6.5323201853       30.0560755865
  N        11.6218612015        3.0732799400       30.9105473744
  N         7.4789897963        7.3325743804       30.1241449811
 Cl        10.4091180103        6.9778774929       23.1766524805
 Cl         8.4707490199        3.1163251865       22.9710447831
  H         7.0206759755        4.3814707311       10.0301993727
  H         7.0162002869        2.9006796346       10.9957397115
  H         8.9669419823        1.9948438981        9.6288789743
  Au    9.5967844016    5.0535373223    35.1193376278    R0
Au    2.936984401600001    -0.7139626776999997    37.4739406278    R0
Au    7.9318844016000005    -0.7139626776999997    37.4739406278    R0
Au    5.434384401600001    0.7279373223000007    37.4739406278    R0
Au    10.4292844016    0.7279373223000007    37.4739406278    R0
Au    7.9318844016000005    2.1698373223000003    37.4739406278    R0
Au    12.926684401600001    2.1698373223000003    37.4739406278    R0
Au    5.434384401600001    3.6116373223    37.4739406278    R0
Au    10.4292844016    3.6116373223    37.4739406278    R0
Au    7.9318844016000005    5.0535373223    37.4739406278    R0
Au    12.926684401600001    5.0535373223    37.4739406278    R0
Au    10.4292844016    6.4954373223    37.4739406278    R0
Au    15.4240844016    6.4954373223    37.4739406278    R0
Au    4.601984401600001    -0.7139626776999997    39.8285426278    R0
Au    9.5967844016    -0.7139626776999997    39.8285426278    R0
Au    7.099384401600001    0.7279373223000007    39.8285426278    R0
Au    12.094184401600002    0.7279373223000007    39.8285426278    R0
Au    9.5967844016    2.1698373223000003    39.8285426278    R0
Au    14.5915844016    2.1698373223000003    39.8285426278    R0
Au    7.099384401600001    3.6116373223    39.8285426278    R0
Au    12.094184401600002    3.6116373223    39.8285426278    R0
Au    9.5967844016    5.0535373223    39.8285426278    R0
Au    14.5915844016    5.0535373223    39.8285426278    R0
Au    12.094184401600002    6.4954373223    39.8285426278    R0
Au    17.0889844016    6.4954373223    39.8285426278    R0
Au    1.2720844016000008    -0.7139626776999997    42.1829396278    R0
Au    6.2668844016000005    -0.7139626776999997    42.1831386278    R0
Au    3.7694844016000006    0.7279373223000007    42.1831386278    R0
Au    8.764284401600001    0.7279373223000007    42.1831386278    R0
Au    6.2668844016000005    2.1698373223000003    42.1831386278    R0
Au    11.2616844016    2.1698373223000003    42.1831386278    R0
Au    3.7694844016000006    3.6116373223    42.1831386278    R0
Au    8.764284401600001    3.6116373223    42.1831386278    R0
Au    6.2668844016000005    5.0535373223    42.1831386278    R0
Au    11.2616844016    5.0535373223    42.1831386278    R0
Au    8.764284401600001    6.4954373223    42.1831386278    R0
Au    13.759084401600001    6.4954373223    42.1831386278    R0