     127
 i =      220, E =     -3304.5585423445
 Au         0.0000000000        0.0000000000        0.0000000000
 Au         8.7600000000        0.0000000000        0.0000000000
 Au         4.3800000000        7.5863820000        0.0000000000
 Au        13.1400000000        7.5863820000        0.0000000000
 Au         2.9200000000        0.0000000000        0.0000000000
 Au         7.3000000000        7.5863820000        0.0000000000
 Au         5.8400000000        0.0000000000        0.0000000000
 Au        10.2200000000        7.5863820000        0.0000000000
 Au         1.4600000000        2.5287940000        0.0000000000
 Au        10.2200000000        2.5287940000        0.0000000000
 Au         4.3800000000        2.5287940000        0.0000000000
 Au         7.3000000000        2.5287940000        0.0000000000
 Au         2.9200000000        5.0575880000        0.0000000000
 Au        11.6800000000        5.0575880000        0.0000000000
 Au         5.8400000000        5.0575880000        0.0000000000
 Au         8.7600000000        5.0575880000        0.0000000000
 Au         1.4600000000        0.8429310000        2.3841700000
 Au        10.2200000000        0.8429310000        2.3841700000
 Au         5.8400000000        8.4293140000        2.3841700000
 Au        14.6000000000        8.4293140000        2.3841700000
 Au         4.3800000000        0.8429310000        2.3841700000
 Au         8.7600000000        8.4293140000        2.3841700000
 Au         7.3000000000        0.8429310000        2.3841700000
 Au        11.6800000000        8.4293140000        2.3841700000
 Au         2.9200000000        3.3717260000        2.3841700000
 Au        11.6800000000        3.3717260000        2.3841700000
 Au         5.8400000000        3.3717260000        2.3841700000
 Au         8.7600000000        3.3717260000        2.3841700000
 Au         4.3800000000        5.9005200000        2.3841700000
 Au        13.1400000000        5.9005200000        2.3841700000
 Au         7.3000000000        5.9005200000        2.3841700000
 Au        10.2200000000        5.9005200000        2.3841700000
 Au         8.7600000000        1.6858630000        4.7683400000
 Au        13.1400000000        9.2722450000        4.7683400000
 Au         2.9200000000        1.6858630000        4.7683400000
 Au        11.6800000000        1.6858630000        4.7683400000
 Au         7.3000000000        9.2722450000        4.7683400000
 Au        16.0599990000        9.2722450000        4.7683400000
 Au         5.8400000000        1.6858630000        4.7683400000
 Au        10.2200000000        9.2722450000        4.7683400000
 Au        10.2200000000        4.2146570000        4.7683400000
 Au         4.3800000000        4.2146570000        4.7683400000
 Au        13.1400000000        4.2146570000        4.7683400000
 Au         7.3000000000        4.2146570000        4.7683400000
 Au        11.6800000000        6.7434510000        4.7683400000
 Au         5.8400000000        6.7434510000        4.7683400000
 Au        14.6000000000        6.7434510000        4.7683400000
 Au         8.7600000000        6.7434510000        4.7683400000
  C        10.4426587947        5.3877981759       17.4432114250
  C        10.5345557387        6.5923488435       16.7237814168
  C        11.2724011445        6.6386867269       15.5418282507
  C        11.9352453272        5.5025627658       15.0461718361
  C        11.1568219367        4.2614363557       16.9983052838
  C        11.8835529645        4.3262045316       15.8119305149
  C        11.3207517949        5.3255863323       10.0181316375
  H        11.3226543791        7.5773207642       14.9855843021
  S         9.2373155701        5.2009361391       18.7298469530
  H        11.1136160899        3.3343890900       17.5703366106
  H        12.4151453217        3.4372118733       15.4660972443
  H        10.0088773787        7.4776324355       17.0822844627
  C        11.1208511625        6.5187602484        9.3049452432
  C        10.1548320389        6.6156566471        8.3067135664
  C         9.3452232641        5.5067837855        7.9999173556
  C         9.5631369358        4.2914275151        8.6725398768
  C        10.5379146605        4.2125082319        9.6672389263
  H        10.0065856380        7.5541635100        7.7727204966
  H        11.7327611528        7.3930400762        9.5374054118
  H         8.9587517314        3.4193092322        8.4221988102
  H        10.6906063885        3.2625538825       10.1841330848
  S         7.9346008256        5.7199222133        6.9447350547
  C        12.6249445434        5.5208607037       13.7033045066
  C        12.3075286240        5.2669966572       11.1592345212
  C        11.6226554752        5.4136733017       12.5341790476
  H        13.0535790309        6.0678173997       11.0366951109
  H        12.8602670062        4.3141150469       11.1323624499
  H        13.2100932700        6.4478961604       13.5899908011
  H        13.3412863173        4.6860562570       13.6485639211
  H        10.9549190808        4.5539803699       12.7021433927
  H        10.9753974277        6.3049244916       12.5274241321
 Au         8.7600020000        1.6858630000       20.8661084637
 Au        13.1400000000        9.2722460000       20.8661084637
 Au         2.9200000000        1.6858630000       20.8661084637
 Au        11.6800000000        1.6858630000       20.8661084637
 Au         7.3000000000        9.2722460000       20.8661084637
 Au        16.0599990000        9.2722460000       20.8661084637
 Au         5.8400010000        1.6858630000       20.8661084637
 Au        10.2200000000        9.2722460000       20.8661084637
 Au        10.2200010000        4.2146570000       20.8661084637
 Au         4.3800000000        4.2146570000       20.8661084637
 Au        13.1400000000        4.2146570000       20.8661084637
 Au         7.3000000000        4.2146570000       20.8661084637
 Au        11.6800000000        6.7434510000       20.8661084637
 Au         5.8400000000        6.7434510000       20.8661084637
 Au        14.6000000000        6.7434510000       20.8661084637
 Au         8.7600000000        6.7434510000       20.8661084637
 Au         1.4600000000        0.8429310000       23.2502794637
 Au        10.2200000000        0.8429310000       23.2502794637
 Au         5.8400010000        8.4293140000       23.2502794637
 Au        14.6000000000        8.4293140000       23.2502794637
 Au         4.3800000000        0.8429310000       23.2502794637
 Au         8.7600000000        8.4293140000       23.2502794637
 Au         7.3000010000        0.8429310000       23.2502794637
 Au        11.6800000000        8.4293140000       23.2502794637
 Au         2.9200000000        3.3717260000       23.2502794637
 Au        11.6800010000        3.3717260000       23.2502794637
 Au         5.8400000000        3.3717260000       23.2502794637
 Au         8.7600000000        3.3717260000       23.2502794637
 Au         4.3800000000        5.9005200000       23.2502794637
 Au        13.1400000000        5.9005200000       23.2502794637
 Au         7.3000000000        5.9005200000       23.2502794637
 Au        10.2200000000        5.9005200000       23.2502794637
 Au         0.0000000000        0.0000000000       25.6344504637
 Au         8.7600000000        0.0000000000       25.6344504637
 Au         4.3800000000        7.5863820000       25.6344504637
 Au        13.1399990000        7.5863820000       25.6344504637
 Au         2.9200000000        0.0000000000       25.6344504637
 Au         7.3000000000        7.5863820000       25.6344504637
 Au         5.8400000000        0.0000000000       25.6344504637
 Au        10.2200000000        7.5863820000       25.6344504637
 Au         1.4600000000        2.5287940000       25.6344504637
 Au        10.2200000000        2.5287940000       25.6344504637
 Au         4.3800000000        2.5287940000       25.6344504637
 Au         7.3000000000        2.5287940000       25.6344504637
 Au         2.9200000000        5.0575880000       25.6344504637
 Au        11.6800000000        5.0575880000       25.6344504637
 Au         5.8400000000        5.0575880000       25.6344504637
 Au         8.7600000000        5.0575880000       25.6344504637