     181
 i =      135, E =     -5099.4765173394
 Au         0.0000000000        0.0000000000       -0.2714976643
 Au         8.7600000000        0.0000000000       -0.2386207584
 Au         4.3800000000        7.5863820000       -0.3016217230
 Au        13.1400000000        7.5863820000       -0.2537636411
 Au         2.9200000000        0.0000000000       -0.2622156132
 Au        11.6800000000        0.0000000000       -0.2739665914
 Au         7.3000000000        7.5863820000       -0.2831789967
 Au        16.0599990000        7.5863820000       -0.2798384672
 Au         5.8400000000        0.0000000000       -0.2288409124
 Au        10.2200000000        7.5863820000       -0.2358286225
 Au         1.4600000000        2.5287940000       -0.2597011934
 Au        10.2200000000        2.5287940000       -0.2305632610
 Au         5.8400000000       10.1151760000       -0.2803925805
 Au        14.6000000000       10.1151760000       -0.2619841780
 Au         4.3800000000        2.5287940000       -0.1869020504
 Au        13.1400000000        2.5287940000       -0.2732509000
 Au         8.7600000000       10.1151760000       -0.2316198699
 Au        17.5200000000       10.1151760000       -0.2797669199
 Au         7.3000000000        2.5287940000       -0.1459936170
 Au        11.6800000000       10.1151760000       -0.2493268729
 Au         2.9200000000        5.0575880000       -0.2663292286
 Au        11.6800000000        5.0575880000       -0.2396323382
 Au         5.8400000000        5.0575880000       -0.2237884336
 Au        14.6000000000        5.0575880000       -0.2760699856
 Au         8.7600000000        5.0575880000       -0.2179458537
 Au         1.4600000000        0.8429310000        2.3621051249
 Au        10.2200000000        0.8429310000        2.3716883364
 Au         5.8400000000        8.4293140000        2.3028963514
 Au        14.6000000000        8.4293140000        2.3601894651
 Au         4.3800000000        0.8429310000        2.3931855454
 Au        13.1400000000        0.8429310000        2.3524084810
 Au         8.7600000000        8.4293140000        2.4039243749
 Au        17.5200000000        8.4293140000        2.3378403442
 Au         7.3000000000        0.8429310000        2.4160064608
 Au        11.6800000000        8.4293140000        2.3705629842
 Au         2.9200000000        3.3717260000        2.3821272327
 Au        11.6800000000        3.3717260000        2.3527326461
 Au         7.3000000000       10.9581080000        2.3550952533
 Au        16.0599990000       10.9581080000        2.3627267464
 Au         5.8400000000        3.3717260000        2.5220774705
 Au        14.6000000000        3.3717260000        2.3513263603
 Au        10.2200000000       10.9581080000        2.3657676357
 Au        18.9800000000       10.9581080000        2.3465972128
 Au         8.7600000000        3.3717260000        2.4506470190
 Au        13.1400000000       10.9581080000        2.3782189434
 Au         4.3800000000        5.9005200000        2.3267109516
 Au        13.1400000000        5.9005200000        2.3597177986
 Au         7.3000000000        5.9005200000        2.3681681263
 Au        16.0599990000        5.9005200000        2.3505956395
 Au        10.2200000000        5.9005200000        2.3922340376
 Au         8.7600000000        1.6858630000        5.0209463338
 Au        13.1400000000        9.2722450000        4.9991188363
 Au         2.9200000000        1.6858630000        5.0051193883
 Au        11.6800000000        1.6858630000        4.9816191152
 Au         7.3000000000        9.2722450000        4.9557179877
 Au        16.0599990000        9.2722450000        4.9775775577
 Au         5.8400000000        1.6858630000        5.0582807098
 Au        14.6000000000        1.6858630000        4.9798713085
 Au        10.2200000000        9.2722450000        4.9846607435
 Au        18.9800000000        9.2722450000        4.9552109309
 Au        10.2200000000        4.2146570000        4.9344344714
 Au        14.6000000000       11.8010400000        5.0106947462
 Au         4.3800000000        4.2146570000        5.0292387390
 Au        13.1400000000        4.2146570000        4.9735976107
 Au         8.7600000000       11.8010400000        4.9872782346
 Au        17.5200000000       11.8010400000        4.9829757955
 Au         7.3000000000        4.2146570000        5.4093230101
 Au        16.0599990000        4.2146570000        4.9818398002
 Au        11.6800000000       11.8010400000        5.0024178994
 Au        20.4400010000       11.8010400000        4.9786055445
 Au        11.6800000000        6.7434510000        4.9779368733
 Au         5.8400000000        6.7434510000        4.8129076669
 Au        14.6000000000        6.7434510000        4.9839490163
 Au         8.7600000000        6.7434510000        4.9782598955
 Au        17.5200000000        6.7434510000        4.9649744987
  C        10.5007031678        5.3226009729       17.2953351227
  C        10.6219933332        6.5428574512       16.6080000806
  C        11.4356135479        6.6198123219       15.4791536080
  C        12.1426023511        5.4992047975       15.0083776951
  C        11.2691588207        4.2166158940       16.8882401127
  C        12.0709548815        4.3116770442       15.7545771958
  C        11.5032015732        5.3387218642       10.0322531272
  H        11.5027338348        7.5657035199       14.9375753085
  S         9.1966474056        5.0541413862       18.4587362558
  H        11.2042791931        3.2796386072       17.4416073964
  H        12.6385046843        3.4373926319       15.4295624209
  H        10.0548623915        7.4117771742       16.9422490220
  C        11.2488046356        6.5668762261        9.4007943866
  C        10.2179334299        6.7057804236        8.4766452928
  C         9.3993970958        5.6033618607        8.1672230352
  C         9.6741126136        4.3535078872        8.7478222167
  C        10.7148666993        4.2332870848        9.6687886547
  H        10.0260741727        7.6705212408        8.0069973846
  H        11.8658404650        7.4346199828        9.6430593215
  H         9.0614000709        3.4895542896        8.4900384154
  H        10.9097748098        3.2598850894       10.1238406812
  S         7.9267809675        5.9004541430        7.2293892574
  C        12.8663626451        5.5316845350       13.6854329161
  C        12.5306631886        5.2480595976       11.1329387355
  C        11.8662004947        5.4020882102       12.5169477831
  H        13.2863757880        6.0373079245       10.9969550967
  H        13.0613195177        4.2841557007       11.0867500439
  H        13.4325420902        6.4703916295       13.5766927686
  H        13.5968018855        4.7091237099       13.6417700110
  H        11.2054828326        4.5395749100       12.6972402556
  H        11.2101029921        6.2866229009       12.5076033276
 Au         8.7600020000        1.6858630000       20.7282160747
 Au        13.1400000000        9.2722460000       20.6459453582
 Au         2.9200000000        1.6858630000       20.6772323207
 Au        11.6800000000        1.6858630000       20.6306351009
 Au         7.3000000000        9.2722460000       20.5941295638
 Au        16.0599990000        9.2722460000       20.6693197851
 Au         5.8400010000        1.6858630000       20.7219575845
 Au        14.6000000000        1.6858630000       20.6390913756
 Au        10.2200000000        9.2722460000       20.5850448259
 Au        18.9800000000        9.2722460000       20.6519251409
 Au        10.2200010000        4.2146570000       20.6214345212
 Au        14.6000000000       11.8010400000       20.6763962012
 Au         4.3800000000        4.2146570000       20.7112574291
 Au        13.1400000000        4.2146570000       20.6126201857
 Au         8.7600000000       11.8010400000       20.6370213653
 Au        17.5200000000       11.8010400000       20.6574454857
 Au         7.3000000000        4.2146570000       20.8754105808
 Au        16.0599990000        4.2146570000       20.6554702001
 Au        11.6800000000       11.8010400000       20.6606608131
 Au        20.4400010000       11.8010400000       20.6404300819
 Au        11.6800000000        6.7434510000       20.6901298824
 Au         5.8400000000        6.7434510000       20.6873936138
 Au        14.6000000000        6.7434510000       20.6509292148
 Au         8.7600000000        6.7434510000       20.3466004578
 Au        17.5200000000        6.7434510000       20.6749929204
 Au         1.4600000000        0.8429310000       23.2823583164
 Au        10.2200000000        0.8429310000       23.2885074304
 Au         5.8400010000        8.4293140000       23.2603644552
 Au        14.6000000000        8.4293140000       23.2816829414
 Au         4.3800000000        0.8429310000       23.3152206120
 Au        13.1400010000        0.8429310000       23.2637370471
 Au         8.7600000000        8.4293140000       23.1129984144
 Au        17.5200000000        8.4293140000       23.2926865652
 Au         7.3000010000        0.8429310000       23.3285344439
 Au        11.6800000000        8.4293140000       23.2460285519
 Au         2.9200000000        3.3717260000       23.3094722670
 Au        11.6800010000        3.3717260000       23.1790870562
 Au         7.3000000000       10.9581090000       23.2528206972
 Au        16.0599980000       10.9581090000       23.2953712151
 Au         5.8400000000        3.3717260000       23.3860445021
 Au        14.6000000000        3.3717260000       23.2565411626
 Au        10.2200000000       10.9581090000       23.2529979772
 Au        18.9800000000       10.9581090000       23.2741110045
 Au         8.7600000000        3.3717260000       23.3377440693
 Au        13.1399990000       10.9581090000       23.2867068132
 Au         4.3800000000        5.9005200000       23.3131501950
 Au        13.1400000000        5.9005200000       23.2585267874
 Au         7.3000000000        5.9005200000       23.2944010441
 Au        16.0599990000        5.9005200000       23.2842726051
 Au        10.2200000000        5.9005200000       23.2056337459
 Au         0.0000000000        0.0000000000       25.9058255612
 Au         8.7600000000        0.0000000000       25.9255354572
 Au         4.3800000000        7.5863820000       25.9120865341
 Au        13.1399990000        7.5863820000       25.8809150566
 Au         2.9200000000        0.0000000000       25.9119762827
 Au        11.6800000000        0.0000000000       25.8943099568
 Au         7.3000000000        7.5863820000       25.8414607333
 Au        16.0599990000        7.5863820000       25.9131824940
 Au         5.8400000000        0.0000000000       25.9419079891
 Au        10.2200000000        7.5863820000       25.8076112335
 Au         1.4600000000        2.5287940000       25.9105326686
 Au        10.2200000000        2.5287940000       25.9010031156
 Au         5.8400000000       10.1151760000       25.8857479808
 Au        14.6000000000       10.1151760000       25.9171115497
 Au         4.3800000000        2.5287940000       25.9655525219
 Au        13.1400000000        2.5287940000       25.8345711402
 Au         8.7600000000       10.1151760000       25.8212131942
 Au        17.5200000000       10.1151760000       25.9161124534
 Au         7.3000000000        2.5287940000       25.9704947295
 Au        11.6800000000       10.1151760000       25.8781801595
 Au         2.9200000000        5.0575880000       25.9334154622
 Au        11.6800000000        5.0575880000       25.8465560082
 Au         5.8400000000        5.0575880000       25.9567272668
 Au        14.6000000000        5.0575880000       25.8780159723
 Au         8.7600000000        5.0575880000       25.9099294320
