31
	Energy:      25.9822987
C          0.30377       12.28050       -7.54794
C          1.04724       12.70844       -8.65251
C          1.22663       11.85967       -9.74889
C          0.66382       10.57129       -9.74959
C         -0.26199       11.00147       -7.54180
C         -0.08463       10.15043       -8.63684
C          4.39377        8.17710      -10.28114
H          1.80234       12.20886      -10.59651
S          0.07509       13.36840       -6.14546
H         -0.83942       10.66480       -6.69011
H         -0.52971        9.16351       -8.61393
H          1.48613       13.69807       -8.66406
C          5.36260        9.17677      -10.48004
C          6.69299        8.83099      -10.73568
C          7.06977        7.48541      -10.79329
C          6.11346        6.48476      -10.59297
C          4.78219        6.82723      -10.33689
H          7.42908        9.61027      -10.88756
H          5.09010       10.22360      -10.43484
H          6.39926        5.44132      -10.63488
H          4.05641        6.03818      -10.18421
S          8.77317        7.04468      -11.12046
C          0.85415        9.65141      -10.93260
C          2.95785        8.54697      -10.00141
C          2.33061        9.30446      -11.18396
H          2.92583        9.16895       -9.08109
H          2.35570        7.63033       -9.81580
H          0.43831       10.14774      -11.83576
H          0.29258        8.70264      -10.78492
H          2.38522        8.66015      -12.08880
H          2.89989       10.23434      -11.39393
