46
	Energy:      40.0265918
C         -1.08144      -10.07747        4.10369
C         -0.60064      -11.09081        4.95085
C         -0.82234      -11.02374        6.32871
C         -1.52864       -9.94296        6.88334
C         -1.78252       -8.99581        4.66012
C         -2.00473       -8.92934        6.03657
C         -0.15065       -8.03376       12.75232
H         -0.43309      -11.80811        6.96712
H         -2.17341       -8.21211        4.02272
H         -2.56339       -8.09526        6.44349
H         -0.04372      -11.92644        4.54321
C          0.57615       -8.86230       13.62197
C          0.34996       -8.81779       14.99702
C         -0.59268       -7.92593       15.53749
C         -1.31811       -7.09274       14.66716
C         -1.10570       -7.15225       13.28706
H          0.91272       -9.47962       15.64325
H          1.30952       -9.55742       13.23104
H         -2.05023       -6.39587       15.05844
H         -1.67288       -6.50050       12.63297
C         -1.77901       -9.87075        8.36602
C          0.09380       -8.09296       11.26764
C         -1.03286       -8.85124       10.55607
C         -0.77501       -8.93269        9.04562
H         -2.01603       -8.36549       10.73812
H         -1.06137       -9.88161       10.97761
H         -0.82617       -7.91232        8.60754
H          0.24382       -9.34593        8.86772
H         -1.65362      -10.88068        8.81550
H         -2.82968       -9.55596        8.55124
H          1.03823       -8.64594       11.06706
H          0.21999       -7.06278       10.86792
C         -0.82596       -7.87229       17.02676
C          0.44551       -7.47458       17.78166
H         -1.17001       -8.87047       17.37453
H         -1.62108       -7.13177       17.26576
H          1.25600       -8.21224       17.60413
H          0.79147       -6.47436       17.44474
S          0.12065       -7.41050       19.56838
C         -0.85334      -10.14977        2.61720
C         -1.76902      -11.19551        1.98151
H          0.21816      -10.37255        2.41649
H         -1.08845       -9.17137        2.14462
H         -1.59230      -12.20143        2.41497
S         -1.48974      -11.26697        0.18731
H         -2.82919      -10.90831        2.15913
