46
	Energy:      37.3979967
C         -1.32334       -9.94680        4.03401
C         -1.26487      -11.15764        4.75575
C         -1.46939      -11.17036        6.13999
C         -1.73184       -9.97810        6.83185
C         -1.59234       -8.75958        4.73265
C         -1.79487       -8.77337        6.11392
C         -0.31759       -8.13560       12.73963
H         -1.41889      -12.11312        6.67063
H         -1.64598       -7.81554        4.20370
H         -2.00456       -7.84071        6.62206
H         -1.06265      -12.09913        4.26521
C         -0.37908       -9.25021       13.59078
C         -0.63602       -9.08756       14.95652
C         -0.83550       -7.80073       15.49936
C         -0.76986       -6.69148       14.64197
C         -0.51355       -6.85498       13.27922
H         -0.67442       -9.97396       15.57357
H         -0.22554      -10.24788       13.19902
H         -0.91782       -5.69140       15.03174
H         -0.46920       -5.97751       12.64607
C         -1.95409       -9.98464        8.32528
C         -0.03715       -8.29974       11.26575
C         -1.13115       -9.11487       10.56113
C         -0.86840       -9.17770        9.05155
H         -2.11583       -8.62624       10.73309
H         -1.16538      -10.14474       10.97797
H         -0.84794       -8.13821        8.65909
H          0.12167       -9.64837        8.86155
H         -1.93920      -11.02530        8.71828
H         -2.95752       -9.55359        8.53340
H          0.94954       -8.79460       11.13337
H          0.01689       -7.29867       10.78350
C         -1.11742       -7.54184       16.96668
C         -1.17845       -8.78394       17.85541
H         -0.32247       -6.87393       17.36423
H         -2.09178       -7.01280       17.04886
H         -0.20686       -9.32200       17.83801
H         -1.99186       -9.46177       17.51968
S         -1.38897       -8.47820       18.90207
C         -1.11213       -9.85020        2.53551
C         -0.81803      -11.17111        1.82492
H         -0.26006       -9.16201        2.34509
H         -2.02560       -9.41030        2.07946
H          0.11497      -11.62549        2.22092
S         -0.68045      -10.98297        0.73905
H         -1.66556      -11.87774        1.95170
