      56
 i =      347, E =      -164.4263272131
C   13.997806533807037   -5.488356364263861   -16.35154064492405
C   14.163989570067205   -4.693525496453175   -15.190281253509383
C   14.072376882148404   -5.1792139898228235   -13.914128831271523
C   14.322061171854664   -6.141631783345275   -9.629237969638318
C   12.907417964025377   -5.534975064812043   -9.564854087465374
C   12.529926374756535   -5.227889006569314   -8.101900202817752
C   11.338510620422863   -5.93660744713755   -5.070460685698092
C   14.090712925506532   -4.984949319866175   -17.652473318359693
C   12.095979555236038   -5.946928244854757   -3.9313816930641403
C   12.951590528978642   -7.017468926701923   -3.5778593638180816
C   13.758749148885165   -7.074771599586644   -2.429479788073751
C   11.639283948209034   -7.807602089325783   -9.801720205681551
C   12.216500028889502   -8.871816287859561   -10.393564549015638
C   10.71140328446899   -7.9823917997959075   -8.668256592523345
H   13.78375130752964   -6.55476727697447   -16.234170373611423
H   14.306849837617055   -3.9115896601930515   -17.750272492300983
S   13.895954420523918   -5.897851111638747   -19.043004615486755
H   14.376482926038076   -3.627829921888737   -15.332220646211145
H   12.05650268045144   -5.098292553879765   -3.240952727455049
H   12.989892548304537   -7.876181114622323   -4.256594795526832
S   13.895954420523916   -5.897851111638747   -1.2422042210533855
H   14.354924389597894   -7.988675320766353   -2.315326953137606
C   14.238638515236932   -4.367476216731616   -12.677512565736235
C   10.442672146186606   -4.814040461968256   -5.470690006728274
C   10.796035116484141   -8.917362648912594   -7.707878586882727
H   9.882306343349407   -7.267221512535918   -8.624632769734141
H   11.62639287964117   -9.624638948351556   -7.669125601510899
H   10.034767107177439   -9.00169506521452   -6.9321691008717865
H   11.392628635760826   -6.803905189946844   -5.736615130415089
H   13.864475462465075   -6.247690264660785   -13.790858973392044
H   12.005764958612879   -9.889996326283917   -10.065633141185412
H   12.893762624833485   -8.75455010735047   -11.240119993851327
C   15.314780191820207   -4.915278129604603   -11.70547871750079
C   11.271893662546358   -4.367126174779744   -7.9284555722334975
H   13.270082727659215   -4.329065123050421   -12.145559807753255
H   14.48382524561253   -3.329550110776993   -12.950303317181836
H   13.37708026758315   -4.691250748269292   -7.642192576258326
H   12.437108489939757   -6.172453942898119   -7.545073696981113
C   11.035761141324684   -3.8228358140878003   -6.512050883179712
C   14.990662837370284   -6.253979576043812   -11.010543266604682
H   10.174710059413476   -4.232471643390435   -4.57512656245556
H   9.506173038425974   -5.221797118434017   -5.887733814804724
H   11.975177931406485   -3.408896950374465   -6.111200028272899
H   10.327400752646664   -2.981814987994058   -6.573662899920825
H   11.356600071538002   -3.5016696599818546   -8.608613236974989
H   10.373237784211081   -4.915461076920437   -8.256369542330816
H   14.980999838619994   -5.535403982250669   -8.98452422784272
H   14.292550267620278   -7.144357325332891   -9.171862978308873
H   15.501497960160115   -4.146636350642314   -10.937493926034506
H   16.253854593929027   -5.012596716288135   -12.271258045876188
H   14.389857138176403   -6.892509292846592   -11.67737005689928
H   15.933240734529301   -6.8041948966545815   -10.866140711605023
C   11.85666861161473   -6.397844122244812   -10.32050390724839
H   10.892440894170868   -5.864092731439728   -10.308745495276737
H   12.154187280872824   -6.4573268353873114   -11.377432707462273
H   12.92819431451826   -4.560792680404685   -10.087914496819312
