      68
 i =      401, E =     -1091.9988585461
 Au         0.0000000000        0.0000000000        0.0000000000
 Au         2.9200000000        0.0000000000        0.0000000000
 Au         5.8400000000        0.0000000000        0.0000000000
 Au         1.4600000000        2.5287941680        0.0000000000
 Au         4.3800000000        2.5287941680        0.0000000000
 Au         7.3000000000        2.5287941680        0.0000000000
 Au         2.9200000000        5.0575883360        0.0000000000
 Au         5.8400000000        5.0575883360        0.0000000000
 Au         8.7600000000        5.0575883360        0.0000000000
 Au         1.4600000000        0.8429312920        2.3841700720
 Au         4.3800000000        0.8429312920        2.3841700720
 Au         7.3000000000        0.8429312920        2.3841700720
 Au         2.9200000000        3.3717254600        2.3841700720
 Au         5.8400000000        3.3717254600        2.3841700720
 Au         8.7600000000        3.3717254600        2.3841700720
 Au         4.3800000000        5.9005196280        2.3841700720
 Au         7.3000000000        5.9005196280        2.3841700720
 Au        10.2200000000        5.9005196280        2.3841700720
 Au         0.0000000000        1.6858628760        4.7683401440
 Au         2.9200000000        1.6858628760        4.7683401440
 Au         5.8400000000        1.6858628760        4.7683401440
 Au         1.4600000000        4.2146570440        4.7683401440
 Au         4.3800000000        4.2146570440        4.7683401440
 Au         7.3000000000        4.2146570440        4.7683401440
 Au         2.9200000000        6.7434512120        4.7683401440
 Au         5.8400000000        6.7434512120        4.7683401440
 Au         8.7600000000        6.7434512120        4.7683401440
  C         6.4101570825        3.7013164220        7.7794389591
  C         7.4864128118        2.9127237638        8.2850257893
  C         8.5697997013        3.5674758479        8.8980535078
  C         8.6106087683        4.9545949520        9.0403545936
  C         6.4524269189        5.0979520095        7.9505742235
  C         7.5295653721        5.7201373105        8.5745105898
  C         9.8263551858        5.6201537424        9.6406703622
  N        10.1400858888        5.0886802285       10.9746915427
  H         9.6825928244        6.7193432021        9.6401983892
  H        10.7014769817        5.4220446166        8.9972742818
  C        11.3285029983        5.6952201570       11.5627372188
  H         9.3331866098        5.2413543728       11.5915006490
  H         9.4063872504        2.9710960403        9.2686891970
  S         5.0206595437        2.9206107589        7.0072373571
  H         5.6234995233        5.6926059691        7.5646887125
  H         7.5478948066        6.8067068871        8.6734530206
  N         7.4621345790        1.5289729545        8.2029578510
  H         6.8538472602        1.1445758179        7.4745436092
  H         8.3770695404        1.0795551395        8.2230075374
  C        12.9015068681        5.5258839017       13.6934745272
  C        12.5815638410        6.0463033968       14.9754722286
  C        13.4020245523        2.9692995799       15.8978651319
  C        13.2657697768        5.2961289228       16.0368305719
  C        12.9979562609        3.1702170762       13.5864183884
  C        13.9790665823        4.2353739555       15.4108940732
  C        11.5958717469        5.1145906024       12.9328623552
  C        13.7018500790        4.3497635364       13.9880879432
  C        11.1557608691        5.9536562154       15.2090750299
  C        12.2556603974        4.7017724101       16.8948026758
  C        12.8249431232        2.3017039332       14.7688571647
  C        11.7258608886        3.5675006406       13.0778317920
  C        10.5547388525        5.3334025760       14.0867573634
  C        10.9589710691        5.1255159658       16.4134748952
  C        12.3582845978        3.2523305590       16.8781054638
  C        11.4056630998        2.2111158071       15.0042245221
  C        10.7440429282        3.0019677496       13.9573811258
  C        10.0289724055        4.0686597154       14.5819084896
  C        10.2560233719        3.9539589989       16.0132463862
  C        11.1041926038        2.7828801365       16.2882108457
  H        12.1876743656        5.4711709166       10.9098329153
  H        11.2754208369        6.8009760614       11.6459017856
      68
 i =      402, E =     -1091.9988630478
 Au         0.0000000000        0.0000000000        0.0000000000
 Au         2.9200000000        0.0000000000        0.0000000000
 Au         5.8400000000        0.0000000000        0.0000000000
 Au         1.4600000000        2.5287941680        0.0000000000
 Au         4.3800000000        2.5287941680        0.0000000000
 Au         7.3000000000        2.5287941680        0.0000000000
 Au         2.9200000000        5.0575883360        0.0000000000
 Au         5.8400000000        5.0575883360        0.0000000000
 Au         8.7600000000        5.0575883360        0.0000000000
 Au         1.4600000000        0.8429312920        2.3841700720
 Au         4.3800000000        0.8429312920        2.3841700720
 Au         7.3000000000        0.8429312920        2.3841700720
 Au         2.9200000000        3.3717254600        2.3841700720
 Au         5.8400000000        3.3717254600        2.3841700720
 Au         8.7600000000        3.3717254600        2.3841700720
 Au         4.3800000000        5.9005196280        2.3841700720
 Au         7.3000000000        5.9005196280        2.3841700720
 Au        10.2200000000        5.9005196280        2.3841700720
 Au         0.0000000000        1.6858628760        4.7683401440
 Au         2.9200000000        1.6858628760        4.7683401440
 Au         5.8400000000        1.6858628760        4.7683401440
 Au         1.4600000000        4.2146570440        4.7683401440
 Au         4.3800000000        4.2146570440        4.7683401440
 Au         7.3000000000        4.2146570440        4.7683401440
 Au         2.9200000000        6.7434512120        4.7683401440
 Au         5.8400000000        6.7434512120        4.7683401440
 Au         8.7600000000        6.7434512120        4.7683401440
  C         6.4099491077        3.7012649388        7.7795580247
  C         7.4868673369        2.9127210002        8.2839723807
  C         8.5697854075        3.5673218131        8.8984864528
  C         8.6106317368        4.9544622965        9.0390333759
  C         6.4526123478        5.0980218672        7.9498672015
  C         7.5289842824        5.7202134720        8.5749942525
  C         9.8258166612        5.6200191717        9.6402073230
  N        10.1401311870        5.0896915888       10.9744327044
  H         9.6825492320        6.7194121285        9.6402315251
  H        10.7016433867        5.4217519667        8.9974554286
  C        11.3289524602        5.6950595119       11.5629127576
  H         9.3328547549        5.2407679293       11.5915385586
  H         9.4067663164        2.9716119376        9.2688055477
  S         5.0206345373        2.9206680937        7.0070920377
  H         5.6232952538        5.6923350169        7.5646267705
  H         7.5479815937        6.8066107169        8.6734231589
  N         7.4622889744        1.5288679548        8.2028616826
  H         6.8536286076        1.1448783312        7.4744904635
  H         8.3772077443        1.0796214345        8.2230531655
  C        12.9026205156        5.5256715574       13.6935082910
  C        12.5813752777        6.0464812554       14.9750957004
  C        13.4022629727        2.9697519204       15.8978763944
  C        13.2653434584        5.2962500587       16.0368514335
  C        12.9982129447        3.1695543946       13.5861898016
  C        13.9797128817        4.2358216130       15.4109283804
  C        11.5966561131        5.1148624101       12.9332269517
  C        13.7021492519        4.3488576586       13.9878082325
  C        11.1552502181        5.9541598769       15.2087736129
  C        12.2557099544        4.7014659486       16.8950854081
  C        12.8252940826        2.3015064033       14.7691508259
  C        11.7261443866        3.5679228720       13.0777487872
  C        10.5545826171        5.3327132894       14.0868281045
  C        10.9590982509        5.1255962394       16.4134073715
  C        12.3579860238        3.2520836034       16.8781657308
  C        11.4056031259        2.2110954549       15.0039027241
  C        10.7439378511        3.0021188036       13.9570971789
  C        10.0282774119        4.0682359038       14.5822444732
  C        10.2561011535        3.9539227750       16.0138490153
  C        11.1038813809        2.7823108475       16.2883778224
  H        12.1874910186        5.4713173977       10.9091433735
  H        11.2750270938        6.8010732620       11.6451468039
      68
 i =      403, E =     -1091.9988617733
 Au         0.0000000000        0.0000000000        0.0000000000
 Au         2.9200000000        0.0000000000        0.0000000000
 Au         5.8400000000        0.0000000000        0.0000000000
 Au         1.4600000000        2.5287941680        0.0000000000
 Au         4.3800000000        2.5287941680        0.0000000000
 Au         7.3000000000        2.5287941680        0.0000000000
 Au         2.9200000000        5.0575883360        0.0000000000
 Au         5.8400000000        5.0575883360        0.0000000000
 Au         8.7600000000        5.0575883360        0.0000000000
 Au         1.4600000000        0.8429312920        2.3841700720
 Au         4.3800000000        0.8429312920        2.3841700720
 Au         7.3000000000        0.8429312920        2.3841700720
 Au         2.9200000000        3.3717254600        2.3841700720
 Au         5.8400000000        3.3717254600        2.3841700720
 Au         8.7600000000        3.3717254600        2.3841700720
 Au         4.3800000000        5.9005196280        2.3841700720
 Au         7.3000000000        5.9005196280        2.3841700720
 Au        10.2200000000        5.9005196280        2.3841700720
 Au         0.0000000000        1.6858628760        4.7683401440
 Au         2.9200000000        1.6858628760        4.7683401440
 Au         5.8400000000        1.6858628760        4.7683401440
 Au         1.4600000000        4.2146570440        4.7683401440
 Au         4.3800000000        4.2146570440        4.7683401440
 Au         7.3000000000        4.2146570440        4.7683401440
 Au         2.9200000000        6.7434512120        4.7683401440
 Au         5.8400000000        6.7434512120        4.7683401440
 Au         8.7600000000        6.7434512120        4.7683401440
  C         6.4099491077        3.7012649388        7.7795580247
  C         7.4868673369        2.9127210002        8.2839723807
  C         8.5697854075        3.5673218131        8.8984864528
  C         8.6106317368        4.9544622965        9.0390333759
  C         6.4526123478        5.0980218672        7.9498672015
  C         7.5289842824        5.7202134720        8.5749942525
  C         9.8258166612        5.6200191717        9.6402073230
  N        10.1401311870        5.0896915888       10.9744327044
  H         9.6825492320        6.7194121285        9.6402315251
  H        10.7016433867        5.4217519667        8.9974554286
  C        11.3289524602        5.6950595119       11.5629127576
  H         9.3328547549        5.2407679293       11.5915385586
  H         9.4067663164        2.9716119376        9.2688055477
  S         5.0206345373        2.9206680937        7.0070920377
  H         5.6232952538        5.6923350169        7.5646267705
  H         7.5479815937        6.8066107169        8.6734231589
  N         7.4622889744        1.5288679548        8.2028616826
  H         6.8536286076        1.1448783312        7.4744904635
  H         8.3772077443        1.0796214345        8.2230531655
  C        12.9026205156        5.5256715574       13.6935082910
  C        12.5813752777        6.0464812554       14.9750957004
  C        13.4022629727        2.9697519204       15.8978763944
  C        13.2653434584        5.2962500587       16.0368514335
  C        12.9982129447        3.1695543946       13.5861898016
  C        13.9797128817        4.2358216130       15.4109283804
  C        11.5966561131        5.1148624101       12.9332269517
  C        13.7021492519        4.3488576586       13.9878082325
  C        11.1552502181        5.9541598769       15.2087736129
  C        12.2557099544        4.7014659486       16.8950854081
  C        12.8252940826        2.3015064033       14.7691508259
  C        11.7261443866        3.5679228720       13.0777487872
  C        10.5545826171        5.3327132894       14.0868281045
  C        10.9590982509        5.1255962394       16.4134073715
  C        12.3579860238        3.2520836034       16.8781657308
  C        11.4056031259        2.2110954549       15.0039027241
  C        10.7439378511        3.0021188036       13.9570971789
  C        10.0282774119        4.0682359038       14.5822444732
  C        10.2561011535        3.9539227750       16.0138490153
  C        11.1038813809        2.7823108475       16.2883778224
  H        12.1874910186        5.4713173977       10.9091433735
  H        11.2750270938        6.8010732620       11.6451468039
  Au    8.7600000000    6.7434512120    44.183080063999995    R0
Au    5.8400000000    6.7434512120    44.183080063999995    R0
Au    2.9200000000    6.7434512120    44.183080063999995    R0
Au    7.3000000000    4.2146570440    44.183080063999995    R0
Au    4.3800000000    4.2146570440    44.183080063999995    R0
Au    1.4600000000    4.2146570440    44.183080063999995    R0
Au    5.8400000000    1.6858628760    44.183080063999995    R0
Au    2.9200000000    1.6858628760    44.183080063999995    R0
Au    0.0000000000    1.6858628760    44.183080063999995    R0
Au    10.2200000000    5.9005196280    46.56725013599999    R0
Au    7.3000000000    5.9005196280    46.56725013599999    R0
Au    4.3800000000    5.9005196280    46.56725013599999    R0
Au    8.7600000000    3.3717254600    46.56725013599999    R0
Au    5.8400000000    3.3717254600    46.56725013599999    R0
Au    2.9200000000    3.3717254600    46.56725013599999    R0
Au    7.3000000000    0.8429312920    46.56725013599999    R0
Au    4.3800000000    0.8429312920    46.56725013599999    R0
Au    1.4600000000    0.8429312920    46.56725013599999    R0
Au    8.7600000000    5.0575883360    48.951420207999995    R0
Au    5.8400000000    5.0575883360    48.951420207999995    R0
Au    2.9200000000    5.0575883360    48.951420207999995    R0
Au    7.3000000000    2.5287941680    48.951420207999995    R0
Au    4.3800000000    2.5287941680    48.951420207999995    R0
Au    1.4600000000    2.5287941680    48.951420207999995    R0
Au    5.8400000000    0.0000000000    48.951420207999995    R0
Au    2.9200000000    0.0000000000    48.951420207999995    R0
Au    0.0000000000    0.0000000000    48.951420207999995    R0
Au    8.7600000000    6.7434512120    51.33559028    R1
Au    5.8400000000    6.7434512120    51.33559028    R1
Au    2.9200000000    6.7434512120    51.33559028    R1
Au    7.3000000000    4.2146570440    51.33559028    R1
Au    4.3800000000    4.2146570440    51.33559028    R1
Au    1.4600000000    4.2146570440    51.33559028    R1
Au    5.8400000000    1.6858628760    51.33559028    R1
Au    2.9200000000    1.6858628760    51.33559028    R1
Au    0.0000000000    1.6858628760    51.33559028    R1
Au    10.2200000000    5.9005196280    53.719760352    R1
Au    7.3000000000    5.9005196280    53.719760352    R1
Au    4.3800000000    5.9005196280    53.719760352    R1
Au    8.7600000000    3.3717254600    53.719760352    R1
Au    5.8400000000    3.3717254600    53.719760352    R1
Au    2.9200000000    3.3717254600    53.719760352    R1
Au    7.3000000000    0.8429312920    53.719760352    R1
Au    4.3800000000    0.8429312920    53.719760352    R1
Au    1.4600000000    0.8429312920    53.719760352    R1
Au    8.7600000000    5.0575883360    56.103930424    R1
Au    5.8400000000    5.0575883360    56.103930424    R1
Au    2.9200000000    5.0575883360    56.103930424    R1
Au    7.3000000000    2.5287941680    56.103930424    R1
Au    4.3800000000    2.5287941680    56.103930424    R1
Au    1.4600000000    2.5287941680    56.103930424    R1
Au    5.8400000000    0.0000000000    56.103930424    R1
Au    2.9200000000    0.0000000000    56.103930424    R1
Au    0.0000000000    0.0000000000    56.103930424    R1
Au    8.7600000000    6.7434512120    58.488100204    R2
Au    5.8400000000    6.7434512120    58.488100204    R2
Au    2.9200000000    6.7434512120    58.488100204    R2
Au    7.3000000000    4.2146570440    58.488100204    R2
Au    4.3800000000    4.2146570440    58.488100204    R2
Au    1.4600000000    4.2146570440    58.488100204    R2
Au    5.8400000000    1.6858628760    58.488100204    R2
Au    2.9200000000    1.6858628760    58.488100204    R2
Au    0.0000000000    1.6858628760    58.488100204    R2
Au    10.2200000000    5.9005196280    60.872270276    R2
Au    7.3000000000    5.9005196280    60.872270276    R2
Au    4.3800000000    5.9005196280    60.872270276    R2
Au    8.7600000000    3.3717254600    60.872270276    R2
Au    5.8400000000    3.3717254600    60.872270276    R2
Au    2.9200000000    3.3717254600    60.872270276    R2
Au    7.3000000000    0.8429312920    60.872270276    R2
Au    4.3800000000    0.8429312920    60.872270276    R2
Au    1.4600000000    0.8429312920    60.872270276    R2
Au    8.7600000000    5.0575883360    63.256440348    R2
Au    5.8400000000    5.0575883360    63.256440348    R2
Au    2.9200000000    5.0575883360    63.256440348    R2
Au    7.3000000000    2.5287941680    63.256440348    R2
Au    4.3800000000    2.5287941680    63.256440348    R2
Au    1.4600000000    2.5287941680    63.256440348    R2
Au    5.8400000000    0.0000000000    63.256440348    R2
Au    2.9200000000    0.0000000000    63.256440348    R2
Au    0.0000000000    0.0000000000    63.256440348    R2
Au    8.7600000000    6.7434512120    65.64061012799999    R3
Au    5.8400000000    6.7434512120    65.64061012799999    R3
Au    2.9200000000    6.7434512120    65.64061012799999    R3
Au    7.3000000000    4.2146570440    65.64061012799999    R3
Au    4.3800000000    4.2146570440    65.64061012799999    R3
Au    1.4600000000    4.2146570440    65.64061012799999    R3
Au    5.8400000000    1.6858628760    65.64061012799999    R3
Au    2.9200000000    1.6858628760    65.64061012799999    R3
Au    0.0000000000    1.6858628760    65.64061012799999    R3
Au    10.2200000000    5.9005196280    68.02478020000001    R3
Au    7.3000000000    5.9005196280    68.02478020000001    R3
Au    4.3800000000    5.9005196280    68.02478020000001    R3
Au    8.7600000000    3.3717254600    68.02478020000001    R3
Au    5.8400000000    3.3717254600    68.02478020000001    R3
Au    2.9200000000    3.3717254600    68.02478020000001    R3
Au    7.3000000000    0.8429312920    68.02478020000001    R3
Au    4.3800000000    0.8429312920    68.02478020000001    R3
Au    1.4600000000    0.8429312920    68.02478020000001    R3
Au    8.7600000000    5.0575883360    70.408950272    R3
Au    5.8400000000    5.0575883360    70.408950272    R3
Au    2.9200000000    5.0575883360    70.408950272    R3
Au    7.3000000000    2.5287941680    70.408950272    R3
Au    4.3800000000    2.5287941680    70.408950272    R3
Au    1.4600000000    2.5287941680    70.408950272    R3
Au    5.8400000000    0.0000000000    70.408950272    R3
Au    2.9200000000    0.0000000000    70.408950272    R3
Au    0.0000000000    0.0000000000    70.408950272    R3
