      88
 i =      241, E =     -1913.8242880491
 Au         0.0000000000        0.0000000000        0.0000000000
 Au         2.9200000000        0.0000000000        0.0000000000
 Au         5.8400000000        0.0000000000        0.0000000000
 Au         1.4600000000        2.5287941680        0.0000000000
 Au         4.3800000000        2.5287941680        0.0000000000
 Au         7.3000000000        2.5287941680        0.0000000000
 Au         2.9200000000        5.0575883360        0.0000000000
 Au         5.8400000000        5.0575883360        0.0000000000
 Au         8.7600000000        5.0575883360        0.0000000000
 Au         1.4600000000        0.8429312920        2.3841700720
 Au         4.3800000000        0.8429312920        2.3841700720
 Au         7.3000000000        0.8429312920        2.3841700720
 Au         2.9200000000        3.3717254600        2.3841700720
 Au         5.8400000000        3.3717254600        2.3841700720
 Au         8.7600000000        3.3717254600        2.3841700720
 Au         4.3800000000        5.9005196280        2.3841700720
 Au         7.3000000000        5.9005196280        2.3841700720
 Au        10.2200000000        5.9005196280        2.3841700720
 Au         0.0000000000        1.6858628760        4.7683401440
 Au         2.9200000000        1.6858628760        4.7683401440
 Au         5.8400000000        1.6858628760        4.7683401440
 Au         1.4600000000        4.2146570440        4.7683401440
 Au         4.3800000000        4.2146570440        4.7683401440
 Au         7.3000000000        4.2146570440        4.7683401440
 Au         2.9200000000        6.7434512120        4.7683401440
 Au         5.8400000000        6.7434512120        4.7683401440
 Au         8.7600000000        6.7434512120        4.7683401440
  C         3.8044999263        2.3657874531       17.5759680864
  C         3.7627073314        3.6238766531       16.9512065364
  C         4.0289648721        3.7683491445       15.5905208300
  C         4.3509713696        2.6584882413       14.7836443185
  C         4.1691050911        1.2660189991       16.7851138890
  C         4.4357781433        1.4067948648       15.4204324841
  C         4.5584373557        2.8090695451       13.3194501663
  H         3.9873136898        4.7622509369       15.1423811398
  C         3.3528860954        2.2003921992       19.0169454998
  H         4.2049973658        0.2712655477       17.2348102209
  H         4.6655573261        0.5184944789       14.8298985284
  H         3.4906969375        4.5066536678       17.5350468339
  C         3.7892025689        3.7187784891       12.5691052582
  C         3.9927298274        3.8858757174       11.1987208577
  C         4.9740662371        3.1561491086       10.5093464329
  C         5.7285218963        2.2314740238       11.2517616834
  C         5.5257958347        2.0596791413       12.6224010311
  H         3.3805621131        4.6068681236       10.6525319898
  H         3.0073465096        4.2961139590       13.0648787754
  H         6.5130477007        1.6555524842       10.7554258390
  H         6.1593853216        1.3602149639       13.1702108435
  C         5.2364505154        3.3967519446        9.0354346100
  C         4.2991993057        2.7730957911       20.0949607706
  H         3.1691120632        1.1378283837       19.2325278142
  H         2.3779510719        2.7047688745       19.1199242712
  H         5.0990504915        2.0742090880       20.3711630831
  H         4.7584755756        3.7170403643       19.7695955553
  C         4.6326349711        2.3435136546        8.0614596548
  H         6.3230569441        3.4330175415        8.8618056702
  H         4.8585542959        4.3940904745        8.7657872782
  H         5.4121608282        1.8489387100        7.4643474359
  H         4.0797996215        1.5638254775        8.6042687083
  S         3.2866552130        3.2095546353       21.5901384498
  S         3.3936889367        3.0946561975        6.9116938712
 Au         8.7600000000        6.7434512120       23.7070300000
 Au         5.8400000000        6.7434512120       23.7070300000
 Au         2.9200000000        6.7434512120       23.7070300000
 Au         7.3000000000        4.2146570440       23.7070300000
 Au         4.3800000000        4.2146570440       23.7070300000
 Au         1.4600000000        4.2146570440       23.7070300000
 Au         5.8400000000        1.6858628760       23.7070300000
 Au         2.9200000000        1.6858628760       23.7070300000
 Au         0.0000000000        1.6858628760       23.7070300000
 Au        10.2200000000        5.9005196280       26.0912000720
 Au         7.3000000000        5.9005196280       26.0912000720
 Au         4.3800000000        5.9005196280       26.0912000720
 Au         8.7600000000        3.3717254600       26.0912000720
 Au         5.8400000000        3.3717254600       26.0912000720
 Au         2.9200000000        3.3717254600       26.0912000720
 Au         7.3000000000        0.8429312920       26.0912000720
 Au         4.3800000000        0.8429312920       26.0912000720
 Au         1.4600000000        0.8429312920       26.0912000720
 Au         8.7600000000        5.0575883360       28.4753701440
 Au         5.8400000000        5.0575883360       28.4753701440
 Au         2.9200000000        5.0575883360       28.4753701440
 Au         7.3000000000        2.5287941680       28.4753701440
 Au         4.3800000000        2.5287941680       28.4753701440
 Au         1.4600000000        2.5287941680       28.4753701440
 Au         5.8400000000        0.0000000000       28.4753701440
 Au         2.9200000000        0.0000000000       28.4753701440
 Au         0.0000000000        0.0000000000       28.4753701440
 Au    8.7600000000    6.7434512120    49.91969028    R1
Au    5.8400000000    6.7434512120    49.91969028    R1
Au    2.9200000000    6.7434512120    49.91969028    R1
Au    7.3000000000    4.2146570440    49.91969028    R1
Au    4.3800000000    4.2146570440    49.91969028    R1
Au    1.4600000000    4.2146570440    49.91969028    R1
Au    5.8400000000    1.6858628760    49.91969028    R1
Au    2.9200000000    1.6858628760    49.91969028    R1
Au    0.0000000000    1.6858628760    49.91969028    R1
Au    10.2200000000    5.9005196280    52.303860352    R1
Au    7.3000000000    5.9005196280    52.303860352    R1
Au    4.3800000000    5.9005196280    52.303860352    R1
Au    8.7600000000    3.3717254600    52.303860352    R1
Au    5.8400000000    3.3717254600    52.303860352    R1
Au    2.9200000000    3.3717254600    52.303860352    R1
Au    7.3000000000    0.8429312920    52.303860352    R1
Au    4.3800000000    0.8429312920    52.303860352    R1
Au    1.4600000000    0.8429312920    52.303860352    R1
Au    8.7600000000    5.0575883360    54.688030424    R1
Au    5.8400000000    5.0575883360    54.688030424    R1
Au    2.9200000000    5.0575883360    54.688030424    R1
Au    7.3000000000    2.5287941680    54.688030424    R1
Au    4.3800000000    2.5287941680    54.688030424    R1
Au    1.4600000000    2.5287941680    54.688030424    R1
Au    5.8400000000    0.0000000000    54.688030424    R1
Au    2.9200000000    0.0000000000    54.688030424    R1
Au    0.0000000000    0.0000000000    54.688030424    R1
Au    8.7600000000    6.7434512120    57.072200204    R2
Au    5.8400000000    6.7434512120    57.072200204    R2
Au    2.9200000000    6.7434512120    57.072200204    R2
Au    7.3000000000    4.2146570440    57.072200204    R2
Au    4.3800000000    4.2146570440    57.072200204    R2
Au    1.4600000000    4.2146570440    57.072200204    R2
Au    5.8400000000    1.6858628760    57.072200204    R2
Au    2.9200000000    1.6858628760    57.072200204    R2
Au    0.0000000000    1.6858628760    57.072200204    R2
Au    10.2200000000    5.9005196280    59.456370276    R2
Au    7.3000000000    5.9005196280    59.456370276    R2
Au    4.3800000000    5.9005196280    59.456370276    R2
Au    8.7600000000    3.3717254600    59.456370276    R2
Au    5.8400000000    3.3717254600    59.456370276    R2
Au    2.9200000000    3.3717254600    59.456370276    R2
Au    7.3000000000    0.8429312920    59.456370276    R2
Au    4.3800000000    0.8429312920    59.456370276    R2
Au    1.4600000000    0.8429312920    59.456370276    R2
Au    8.7600000000    5.0575883360    61.840540348    R2
Au    5.8400000000    5.0575883360    61.840540348    R2
Au    2.9200000000    5.0575883360    61.840540348    R2
Au    7.3000000000    2.5287941680    61.840540348    R2
Au    4.3800000000    2.5287941680    61.840540348    R2
Au    1.4600000000    2.5287941680    61.840540348    R2
Au    5.8400000000    0.0000000000    61.840540348    R2
Au    2.9200000000    0.0000000000    61.840540348    R2
Au    0.0000000000    0.0000000000    61.840540348    R2
Au    8.7600000000    6.7434512120    64.224710128    R3
Au    5.8400000000    6.7434512120    64.224710128    R3
Au    2.9200000000    6.7434512120    64.224710128    R3
Au    7.3000000000    4.2146570440    64.224710128    R3
Au    4.3800000000    4.2146570440    64.224710128    R3
Au    1.4600000000    4.2146570440    64.224710128    R3
Au    5.8400000000    1.6858628760    64.224710128    R3
Au    2.9200000000    1.6858628760    64.224710128    R3
Au    0.0000000000    1.6858628760    64.224710128    R3
Au    10.2200000000    5.9005196280    66.60888020000002    R3
Au    7.3000000000    5.9005196280    66.60888020000002    R3
Au    4.3800000000    5.9005196280    66.60888020000002    R3
Au    8.7600000000    3.3717254600    66.60888020000002    R3
Au    5.8400000000    3.3717254600    66.60888020000002    R3
Au    2.9200000000    3.3717254600    66.60888020000002    R3
Au    7.3000000000    0.8429312920    66.60888020000002    R3
Au    4.3800000000    0.8429312920    66.60888020000002    R3
Au    1.4600000000    0.8429312920    66.60888020000002    R3
Au    8.7600000000    5.0575883360    68.993050272    R3
Au    5.8400000000    5.0575883360    68.993050272    R3
Au    2.9200000000    5.0575883360    68.993050272    R3
Au    7.3000000000    2.5287941680    68.993050272    R3
Au    4.3800000000    2.5287941680    68.993050272    R3
Au    1.4600000000    2.5287941680    68.993050272    R3
Au    5.8400000000    0.0000000000    68.993050272    R3
Au    2.9200000000    0.0000000000    68.993050272    R3
Au    0.0000000000    0.0000000000    68.993050272    R3
