88
	Energy:      42.9839396
Au    0.0000000000    0.0000000000    0.0000000000    L3
Au    2.9200000000    0.0000000000    0.0000000000    L3
Au    5.8400000000    0.0000000000    0.0000000000    L3
Au    1.4600000000    2.5287941680    0.0000000000    L3
Au    4.3800000000    2.5287941680    0.0000000000    L3
Au    7.3000000000    2.5287941680    0.0000000000    L3
Au    2.9200000000    5.0575883360    0.0000000000    L3
Au    5.8400000000    5.0575883360    0.0000000000    L3
Au    8.7600000000    5.0575883360    0.0000000000    L3
Au    1.4600000000    0.8429312920    2.3841700720    L3
Au    4.3800000000    0.8429312920    2.3841700720    L3
Au    7.3000000000    0.8429312920    2.3841700720    L3
Au    2.9200000000    3.3717254600    2.3841700720    L3
Au    5.8400000000    3.3717254600    2.3841700720    L3
Au    8.7600000000    3.3717254600    2.3841700720    L3
Au    4.3800000000    5.9005196280    2.3841700720    L3
Au    7.3000000000    5.9005196280    2.3841700720    L3
Au    10.2200000000    5.9005196280    2.3841700720    L3
Au    0.0000000000    1.6858628760    4.7683401440    L3
Au    2.9200000000    1.6858628760    4.7683401440    L3
Au    5.8400000000    1.6858628760    4.7683401440    L3
Au    1.4600000000    4.2146570440    4.7683401440    L3
Au    4.3800000000    4.2146570440    4.7683401440    L3
Au    7.3000000000    4.2146570440    4.7683401440    L3
Au    2.9200000000    6.7434512120    4.7683401440    L3
Au    5.8400000000    6.7434512120    4.7683401440    L3
Au    8.7600000000    6.7434512120    4.7683401440    L3
C    3.18077    2.96813    17.788890144    S
C    3.6635600000000004    4.14086    17.185240143999998    S
C    3.7077999999999998    4.262359999999999    15.793000143999999    S
C    3.27086    3.2169199999999996    14.942620144    S
C    2.7458    1.9267999999999996    16.963230144    S
C    2.7877100000000006    2.0438899999999998    15.572090143999999    S
C    3.3181599999999998    3.34662    13.430770143999998    S
H    4.09088    5.19464    15.416840143999998    S
C    3.1032    2.76383    19.290080143999997    S
H    2.3686    1.0100599999999997    17.401140144    S
H    2.43337    1.1907900000000002    15.021210143999998    S
H    4.01189    4.976380000000001    17.776020144    S
C    3.82531    4.5085999999999995    12.799520143999999    S
C    3.8674999999999997    4.6229499999999994    11.407530143999999    S
C    3.4081200000000003    3.5900000000000003    10.583900143999998    S
C    2.9008599999999998    2.42937    11.190210143999998    S
C    2.8571299999999997    2.31042    12.582020143999998    S
H    4.26454    5.530240000000001    10.967430143999998    S
H    4.20151    5.352790000000001    13.350040143999998    S
H    2.5323599999999997    1.6008    10.602040143999998    S
H    2.4520999999999997    1.3878799999999996    12.958560143999998    S
C    3.48665    3.7878399999999997    9.081720143999998    S
C    3.5932900000000005    3.93948    20.140740144    S
H    3.71087    1.8692600000000001    19.549200143999997    S
H    2.04326    2.5589599999999995    19.556950143999998    S
H    4.662    4.15108    19.924260143999998    S
H    2.98431    4.844670000000001    19.932060143999998    S
C    2.96777    2.6199299999999996    8.236850143999998    S
H    4.55025    3.96757    8.811480143999999    S
H    2.8986100000000006    4.69482    8.820680143999999    S
H    3.55635    1.70182    8.447960143999998    S
H    1.8950500000000003    2.43348    8.456900143999999    S
S    3.4362500000000002    3.53969    21.907030143999997    S
S    3.12908    3.00757    6.468340143999999    S
Au    8.7600000000    6.7434512120    23.70703    R0
Au    5.8400000000    6.7434512120    23.70703    R0
Au    2.9200000000    6.7434512120    23.70703    R0
Au    7.3000000000    4.2146570440    23.70703    R0
Au    4.3800000000    4.2146570440    23.70703    R0
Au    1.4600000000    4.2146570440    23.70703    R0
Au    5.8400000000    1.6858628760    23.70703    R0
Au    2.9200000000    1.6858628760    23.70703    R0
Au    0.0000000000    1.6858628760    23.70703    R0
Au    10.2200000000    5.9005196280    26.091200072000003    R0
Au    7.3000000000    5.9005196280    26.091200072000003    R0
Au    4.3800000000    5.9005196280    26.091200072000003    R0
Au    8.7600000000    3.3717254600    26.091200072000003    R0
Au    5.8400000000    3.3717254600    26.091200072000003    R0
Au    2.9200000000    3.3717254600    26.091200072000003    R0
Au    7.3000000000    0.8429312920    26.091200072000003    R0
Au    4.3800000000    0.8429312920    26.091200072000003    R0
Au    1.4600000000    0.8429312920    26.091200072000003    R0
Au    8.7600000000    5.0575883360    28.475370144    R0
Au    5.8400000000    5.0575883360    28.475370144    R0
Au    2.9200000000    5.0575883360    28.475370144    R0
Au    7.3000000000    2.5287941680    28.475370144    R0
Au    4.3800000000    2.5287941680    28.475370144    R0
Au    1.4600000000    2.5287941680    28.475370144    R0
Au    5.8400000000    0.0000000000    28.475370144    R0
Au    2.9200000000    0.0000000000    28.475370144    R0
Au    0.0000000000    0.0000000000    28.475370144    R0
