34
	Energy:      43.0240111
C          5.67817        6.29373       -6.10730
C          6.16096        7.46646       -6.71095
C          6.20520        7.58796       -8.10319
C          5.76826        6.54252       -8.95357
C          5.24320        5.25240       -6.93296
C          5.28511        5.36949       -8.32410
C          5.81556        6.67222      -10.46542
H          6.58828        8.52024       -8.47935
C          5.60060        6.08943       -4.60611
H          4.86600        4.33566       -6.49505
H          4.93077        4.51639       -8.87498
H          6.50929        8.30198       -6.12017
C          6.32271        7.83420      -11.09667
C          6.36490        7.94855      -12.48866
C          5.90552        6.91560      -13.31229
C          5.39826        5.75497      -12.70598
C          5.35453        5.63602      -11.31417
H          6.76194        8.85584      -12.92876
H          6.69891        8.67839      -10.54615
H          5.02976        4.92640      -13.29415
H          4.94950        4.71348      -10.93763
C          5.98405        7.11344      -14.81447
C          6.09069        7.26508       -3.75545
H          6.20827        5.19486       -4.34699
H          4.54066        5.88456       -4.33924
H          7.15940        7.47668       -3.97193
H          5.48171        8.17027       -3.96413
C          5.46517        5.94553      -15.65934
H          7.04765        7.29317      -15.08471
H          5.39601        8.02042      -15.07551
H          6.05375        5.02742      -15.44823
H          4.39245        5.75908      -15.43929
S          5.93365        6.86529       -1.98916
S          5.62648        6.33317      -17.42785
