      86
 i =      132, E =     -1961.6775069087
 Au         0.0000000000        0.0000000000        0.0000000000
 Au         2.9200000000        0.0000000000        0.0000000000
 Au         5.8400000000        0.0000000000        0.0000000000
 Au         1.4600000000        2.5287941680        0.0000000000
 Au         4.3800000000        2.5287941680        0.0000000000
 Au         7.3000000000        2.5287941680        0.0000000000
 Au         2.9200000000        5.0575883360        0.0000000000
 Au         5.8400000000        5.0575883360        0.0000000000
 Au         8.7600000000        5.0575883360        0.0000000000
 Au         1.4600000000        0.8429312920        2.3841700720
 Au         4.3800000000        0.8429312920        2.3841700720
 Au         7.3000000000        0.8429312920        2.3841700720
 Au         2.9200000000        3.3717254600        2.3841700720
 Au         5.8400000000        3.3717254600        2.3841700720
 Au         8.7600000000        3.3717254600        2.3841700720
 Au         4.3800000000        5.9005196280        2.3841700720
 Au         7.3000000000        5.9005196280        2.3841700720
 Au        10.2200000000        5.9005196280        2.3841700720
 Au         0.0000000000        1.6858628760        4.7683401440
 Au         2.9200000000        1.6858628760        4.7683401440
 Au         5.8400000000        1.6858628760        4.7683401440
 Au         1.4600000000        4.2146570440        4.7683401440
 Au         4.3800000000        4.2146570440        4.7683401440
 Au         7.3000000000        4.2146570440        4.7683401440
 Au         2.9200000000        6.7434512120        4.7683401440
 Au         5.8400000000        6.7434512120        4.7683401440
 Au         8.7600000000        6.7434512120        4.7683401440
  C         3.6485968929        3.2293926341        8.5099294179
  C         3.7007895272        4.5604131541        8.9531367386
  C         3.4052759792        4.8591667773       10.2852720981
  C         3.0473656543        3.8590726410       11.2039121477
  C         3.2806826708        2.2151963240        9.4166141728
  C         2.9908713612        2.5329990364       10.7402723184
  C         2.6538983218        4.1971017065       12.6239142410
  C         2.9040370546        3.9419394619       15.1141432272
  C         3.7046928665        3.8158740083       16.3867873834
  C         4.3356354152        4.9145637650       16.9872703769
  C         4.8924060022        4.9050501284       18.2616506135
  C         4.8455983438        3.7096309554       19.0016123039
  C         3.7418390827        2.6450125878       17.1551834046
  C         4.2704647637        2.5621754680       18.4338324226
  F         3.2058005318        1.5127885993       16.6280991473
  F         4.3789213134        6.0715545262       16.2693349564
  H         3.9765806179        5.3534613594        8.2578113409
  H         3.4448240295        5.8995152281       10.6147720458
  H         5.3504662321        5.8076270519       18.6610397586
  H         4.2369487403        1.6171932903       18.9720822440
  S         4.1950927820        2.7276247142        6.8931427668
  H         3.2309081975        1.1805108088        9.0771343316
  H         2.7079585445        1.7345202830       11.4292143545
  S         5.6684205838        3.5424864196       20.5684371075
  C         3.5849351130        3.7950077304       13.7612483461
  C         4.8411466569        3.3698883115       13.5958397037
  H         2.4094047612        4.9281719795       15.1333083597
  H         2.0857426095        3.2031598772       15.1546196061
  H         1.6662928993        3.7426183111       12.8258100790
  H         2.4826358369        5.2854736410       12.7013549308
  H         5.4677219270        3.1149586133       14.4508260456
  H         5.2784677965        3.2641772612       12.6034259765
 Au         0.0000000000        0.0000000000       22.7255500000
 Au         2.9200000000        0.0000000000       22.7255500000
 Au         5.8400000000        0.0000000000       22.7255500000
 Au         1.4600000000        2.5287941680       22.7255500000
 Au         4.3800000000        2.5287941680       22.7255500000
 Au         7.3000000000        2.5287941680       22.7255500000
 Au         2.9200000000        5.0575883360       22.7255500000
 Au         5.8400000000        5.0575883360       22.7255500000
 Au         8.7600000000        5.0575883360       22.7255500000
 Au         1.4600000000        0.8429312920       25.1097200720
 Au         4.3800000000        0.8429312920       25.1097200720
 Au         7.3000000000        0.8429312920       25.1097200720
 Au         2.9200000000        3.3717254600       25.1097200720
 Au         5.8400000000        3.3717254600       25.1097200720
 Au         8.7600000000        3.3717254600       25.1097200720
 Au         4.3800000000        5.9005196280       25.1097200720
 Au         7.3000000000        5.9005196280       25.1097200720
 Au        10.2200000000        5.9005196280       25.1097200720
 Au         0.0000000000        1.6858628760       27.4938901440
 Au         2.9200000000        1.6858628760       27.4938901440
 Au         5.8400000000        1.6858628760       27.4938901440
 Au         1.4600000000        4.2146570440       27.4938901440
 Au         4.3800000000        4.2146570440       27.4938901440
 Au         7.3000000000        4.2146570440       27.4938901440
 Au         2.9200000000        6.7434512120       27.4938901440
 Au         5.8400000000        6.7434512120       27.4938901440
 Au         8.7600000000        6.7434512120       27.4938901440
 Au    8.7600000000    6.7434512120    43.5144062683    R0
Au    5.8400000000    6.7434512120    43.5144062683    R0
Au    2.9200000000    6.7434512120    43.5144062683    R0
Au    7.3000000000    4.2146570440    43.5144062683    R0
Au    4.3800000000    4.2146570440    43.5144062683    R0
Au    1.4600000000    4.2146570440    43.5144062683    R0
Au    5.8400000000    1.6858628760    43.5144062683    R0
Au    2.9200000000    1.6858628760    43.5144062683    R0
Au    0.0000000000    1.6858628760    43.5144062683    R0
Au    10.2200000000    5.9005196280    45.898576340299996    R0
Au    7.3000000000    5.9005196280    45.898576340299996    R0
Au    4.3800000000    5.9005196280    45.898576340299996    R0
Au    8.7600000000    3.3717254600    45.898576340299996    R0
Au    5.8400000000    3.3717254600    45.898576340299996    R0
Au    2.9200000000    3.3717254600    45.898576340299996    R0
Au    7.3000000000    0.8429312920    45.898576340299996    R0
Au    4.3800000000    0.8429312920    45.898576340299996    R0
Au    1.4600000000    0.8429312920    45.898576340299996    R0
Au    8.7600000000    5.0575883360    48.2827464123    R0
Au    5.8400000000    5.0575883360    48.2827464123    R0
Au    2.9200000000    5.0575883360    48.2827464123    R0
Au    7.3000000000    2.5287941680    48.2827464123    R0
Au    4.3800000000    2.5287941680    48.2827464123    R0
Au    1.4600000000    2.5287941680    48.2827464123    R0
Au    5.8400000000    0.0000000000    48.2827464123    R0
Au    2.9200000000    0.0000000000    48.2827464123    R0
Au    0.0000000000    0.0000000000    48.2827464123    R0
Au    8.7600000000    6.7434512120    50.6669164843    R1
Au    5.8400000000    6.7434512120    50.6669164843    R1
Au    2.9200000000    6.7434512120    50.6669164843    R1
Au    7.3000000000    4.2146570440    50.6669164843    R1
Au    4.3800000000    4.2146570440    50.6669164843    R1
Au    1.4600000000    4.2146570440    50.6669164843    R1
Au    5.8400000000    1.6858628760    50.6669164843    R1
Au    2.9200000000    1.6858628760    50.6669164843    R1
Au    0.0000000000    1.6858628760    50.6669164843    R1
Au    10.2200000000    5.9005196280    53.05108655630001    R1
Au    7.3000000000    5.9005196280    53.05108655630001    R1
Au    4.3800000000    5.9005196280    53.05108655630001    R1
Au    8.7600000000    3.3717254600    53.05108655630001    R1
Au    5.8400000000    3.3717254600    53.05108655630001    R1
Au    2.9200000000    3.3717254600    53.05108655630001    R1
Au    7.3000000000    0.8429312920    53.05108655630001    R1
Au    4.3800000000    0.8429312920    53.05108655630001    R1
Au    1.4600000000    0.8429312920    53.05108655630001    R1
Au    8.7600000000    5.0575883360    55.4352566283    R1
Au    5.8400000000    5.0575883360    55.4352566283    R1
Au    2.9200000000    5.0575883360    55.4352566283    R1
Au    7.3000000000    2.5287941680    55.4352566283    R1
Au    4.3800000000    2.5287941680    55.4352566283    R1
Au    1.4600000000    2.5287941680    55.4352566283    R1
Au    5.8400000000    0.0000000000    55.4352566283    R1
Au    2.9200000000    0.0000000000    55.4352566283    R1
Au    0.0000000000    0.0000000000    55.4352566283    R1
Au    8.7600000000    6.7434512120    57.819426408300004    R2
Au    5.8400000000    6.7434512120    57.819426408300004    R2
Au    2.9200000000    6.7434512120    57.819426408300004    R2
Au    7.3000000000    4.2146570440    57.819426408300004    R2
Au    4.3800000000    4.2146570440    57.819426408300004    R2
Au    1.4600000000    4.2146570440    57.819426408300004    R2
Au    5.8400000000    1.6858628760    57.819426408300004    R2
Au    2.9200000000    1.6858628760    57.819426408300004    R2
Au    0.0000000000    1.6858628760    57.819426408300004    R2
Au    10.2200000000    5.9005196280    60.20359648030001    R2
Au    7.3000000000    5.9005196280    60.20359648030001    R2
Au    4.3800000000    5.9005196280    60.20359648030001    R2
Au    8.7600000000    3.3717254600    60.20359648030001    R2
Au    5.8400000000    3.3717254600    60.20359648030001    R2
Au    2.9200000000    3.3717254600    60.20359648030001    R2
Au    7.3000000000    0.8429312920    60.20359648030001    R2
Au    4.3800000000    0.8429312920    60.20359648030001    R2
Au    1.4600000000    0.8429312920    60.20359648030001    R2
Au    8.7600000000    5.0575883360    62.5877665523    R2
Au    5.8400000000    5.0575883360    62.5877665523    R2
Au    2.9200000000    5.0575883360    62.5877665523    R2
Au    7.3000000000    2.5287941680    62.5877665523    R2
Au    4.3800000000    2.5287941680    62.5877665523    R2
Au    1.4600000000    2.5287941680    62.5877665523    R2
Au    5.8400000000    0.0000000000    62.5877665523    R2
Au    2.9200000000    0.0000000000    62.5877665523    R2
Au    0.0000000000    0.0000000000    62.5877665523    R2
Au    8.7600000000    6.7434512120    64.9719363323    R3
Au    5.8400000000    6.7434512120    64.9719363323    R3
Au    2.9200000000    6.7434512120    64.9719363323    R3
Au    7.3000000000    4.2146570440    64.9719363323    R3
Au    4.3800000000    4.2146570440    64.9719363323    R3
Au    1.4600000000    4.2146570440    64.9719363323    R3
Au    5.8400000000    1.6858628760    64.9719363323    R3
Au    2.9200000000    1.6858628760    64.9719363323    R3
Au    0.0000000000    1.6858628760    64.9719363323    R3
Au    10.2200000000    5.9005196280    67.35610640430001    R3
Au    7.3000000000    5.9005196280    67.35610640430001    R3
Au    4.3800000000    5.9005196280    67.35610640430001    R3
Au    8.7600000000    3.3717254600    67.35610640430001    R3
Au    5.8400000000    3.3717254600    67.35610640430001    R3
Au    2.9200000000    3.3717254600    67.35610640430001    R3
Au    7.3000000000    0.8429312920    67.35610640430001    R3
Au    4.3800000000    0.8429312920    67.35610640430001    R3
Au    1.4600000000    0.8429312920    67.35610640430001    R3
Au    8.7600000000    5.0575883360    69.74027647630001    R3
Au    5.8400000000    5.0575883360    69.74027647630001    R3
Au    2.9200000000    5.0575883360    69.74027647630001    R3
Au    7.3000000000    2.5287941680    69.74027647630001    R3
Au    4.3800000000    2.5287941680    69.74027647630001    R3
Au    1.4600000000    2.5287941680    69.74027647630001    R3
Au    5.8400000000    0.0000000000    69.74027647630001    R3
Au    2.9200000000    0.0000000000    69.74027647630001    R3
Au    0.0000000000    0.0000000000    69.74027647630001    R3