      248
 i =       21, E =     -1959.6943501172
 Au         0.0000000000        0.0000000000        0.0000000000 L3
 Au         2.9200000000        0.0000000000        0.0000000000 L3
 Au         5.8400000000        0.0000000000        0.0000000000 L3
 Au         1.4600000000        2.5287941680        0.0000000000 L3
 Au         4.3800000000        2.5287941680        0.0000000000 L3
 Au         7.3000000000        2.5287941680        0.0000000000 L3
 Au         2.9200000000        5.0575883360        0.0000000000 L3
 Au         5.8400000000        5.0575883360        0.0000000000 L3
 Au         8.7600000000        5.0575883360        0.0000000000 L3
 Au         1.4600000000        0.8429312920        2.3841700720 L3
 Au         4.3800000000        0.8429312920        2.3841700720 L3
 Au         7.3000000000        0.8429312920        2.3841700720 L3
 Au         2.9200000000        3.3717254600        2.3841700720 L3
 Au         5.8400000000        3.3717254600        2.3841700720 L3
 Au         8.7600000000        3.3717254600        2.3841700720 L3
 Au         4.3800000000        5.9005196280        2.3841700720 L3
 Au         7.3000000000        5.9005196280        2.3841700720 L3
 Au        10.2200000000        5.9005196280        2.3841700720 L3
 Au         0.0000000000        1.6858628760        4.7683401440 L3
 Au         2.9200000000        1.6858628760        4.7683401440 L3
 Au         5.8400000000        1.6858628760        4.7683401440 L3
 Au         1.4600000000        4.2146570440        4.7683401440 L3
 Au         4.3800000000        4.2146570440        4.7683401440 L3
 Au         7.3000000000        4.2146570440        4.7683401440 L3
 Au         2.9200000000        6.7434512120        4.7683401440 L3
 Au         5.8400000000        6.7434512120        4.7683401440 L3
 Au         8.7600000000        6.7434512120        4.7683401440 L3
 Au         0.0000000000        0.0000000000        7.1525099240 L2
 Au         2.9200000000        0.0000000000        7.1525099240 L2
 Au         5.8400000000        0.0000000000        7.1525099240 L2
 Au         1.4600000000        2.5287941680        7.1525099240 L2
 Au         4.3800000000        2.5287941680        7.1525099240 L2
 Au         7.3000000000        2.5287941680        7.1525099240 L2
 Au         2.9200000000        5.0575883360        7.1525099240 L2
 Au         5.8400000000        5.0575883360        7.1525099240 L2
 Au         8.7600000000        5.0575883360        7.1525099240 L2
 Au         1.4600000000        0.8429312920        9.5366799960 L2
 Au         4.3800000000        0.8429312920        9.5366799960 L2
 Au         7.3000000000        0.8429312920        9.5366799960 L2
 Au         2.9200000000        3.3717254600        9.5366799960 L2
 Au         5.8400000000        3.3717254600        9.5366799960 L2
 Au         8.7600000000        3.3717254600        9.5366799960 L2
 Au         4.3800000000        5.9005196280        9.5366799960 L2
 Au         7.3000000000        5.9005196280        9.5366799960 L2
 Au        10.2200000000        5.9005196280        9.5366799960 L2
 Au         0.0000000000        1.6858628760       11.9208500680 L2
 Au         2.9200000000        1.6858628760       11.9208500680 L2
 Au         5.8400000000        1.6858628760       11.9208500680 L2
 Au         1.4600000000        4.2146570440       11.9208500680 L2
 Au         4.3800000000        4.2146570440       11.9208500680 L2
 Au         7.3000000000        4.2146570440       11.9208500680 L2
 Au         2.9200000000        6.7434512120       11.9208500680 L2
 Au         5.8400000000        6.7434512120       11.9208500680 L2
 Au         8.7600000000        6.7434512120       11.9208500680 L2
 Au         0.0000000000        0.0000000000       14.3050198480 L1
 Au         2.9200000000        0.0000000000       14.3050198480 L1
 Au         5.8400000000        0.0000000000       14.3050198480 L1
 Au         1.4600000000        2.5287941680       14.3050198480 L1
 Au         4.3800000000        2.5287941680       14.3050198480 L1
 Au         7.3000000000        2.5287941680       14.3050198480 L1
 Au         2.9200000000        5.0575883360       14.3050198480 L1
 Au         5.8400000000        5.0575883360       14.3050198480 L1
 Au         8.7600000000        5.0575883360       14.3050198480 L1
 Au         1.4600000000        0.8429312920       16.6891899200 L1
 Au         4.3800000000        0.8429312920       16.6891899200 L1
 Au         7.3000000000        0.8429312920       16.6891899200 L1
 Au         2.9200000000        3.3717254600       16.6891899200 L1
 Au         5.8400000000        3.3717254600       16.6891899200 L1
 Au         8.7600000000        3.3717254600       16.6891899200 L1
 Au         4.3800000000        5.9005196280       16.6891899200 L1
 Au         7.3000000000        5.9005196280       16.6891899200 L1
 Au        10.2200000000        5.9005196280       16.6891899200 L1
 Au         0.0000000000        1.6858628760       19.0733599920 L1
 Au         2.9200000000        1.6858628760       19.0733599920 L1
 Au         5.8400000000        1.6858628760       19.0733599920 L1
 Au         1.4600000000        4.2146570440       19.0733599920 L1
 Au         4.3800000000        4.2146570440       19.0733599920 L1
 Au         7.3000000000        4.2146570440       19.0733599920 L1
 Au         2.9200000000        6.7434512120       19.0733599920 L1
 Au         5.8400000000        6.7434512120       19.0733599920 L1
 Au         8.7600000000        6.7434512120       19.0733599920 L1
Au    0.0000000000    0.0000000000    21.457530064    L0
Au    2.9200000000    0.0000000000    21.457530064    L0
Au    5.8400000000    0.0000000000    21.457530064    L0
Au    1.4600000000    2.5287941680    21.457530064    L0
Au    4.3800000000    2.5287941680    21.457530064    L0
Au    7.3000000000    2.5287941680    21.457530064    L0
Au    2.9200000000    5.0575883360    21.457530064    L0
Au    5.8400000000    5.0575883360    21.457530064    L0
Au    8.7600000000    5.0575883360    21.457530064    L0
Au    1.4600000000    0.8429312920    23.841700136    L0
Au    4.3800000000    0.8429312920    23.841700136    L0
Au    7.3000000000    0.8429312920    23.841700136    L0
Au    2.9200000000    3.3717254600    23.841700136    L0
Au    5.8400000000    3.3717254600    23.841700136    L0
Au    8.7600000000    3.3717254600    23.841700136    L0
Au    4.3800000000    5.9005196280    23.841700136    L0
Au    7.3000000000    5.9005196280    23.841700136    L0
Au    10.2200000000    5.9005196280    23.841700136    L0
Au    0.0000000000    1.6858628760    26.225870208    L0
Au    2.9200000000    1.6858628760    26.225870208    L0
Au    5.8400000000    1.6858628760    26.225870208    L0
Au    1.4600000000    4.2146570440    26.225870208    L0
Au    4.3800000000    4.2146570440    26.225870208    L0
Au    7.3000000000    4.2146570440    26.225870208    L0
Au    2.9200000000    6.7434512120    26.225870208    L0
Au    5.8400000000    6.7434512120    26.225870208    L0
Au    8.7600000000    6.7434512120    26.225870208    L0
C    3.6485968929    3.2293926341    29.9674594819    S
C    3.7007895272    4.5604131541    30.410666802599998    S
C    3.4052759792    4.8591667773    31.7428021621    S
C    3.0473656543    3.8590726410    32.6614422117    S
C    3.2806826708    2.2151963240    30.8741442368    S
C    2.9908713612    2.5329990364    32.1978023824    S
C    2.6538983218    4.1971017065    34.081444305    S
C    2.9040370546    3.9419394619    36.5716732912    S
C    3.7046928665    3.8158740083    37.8443174474    S
C    4.3356354152    4.9145637650    38.444800440899996    S
C    4.8924060022    4.9050501284    39.7191806775    S
C    4.8455983438    3.7096309554    40.4591423679    S
C    3.7418390827    2.6450125878    38.6127134686    S
C    4.2704647637    2.5621754680    39.8913624866    S
F    3.2058005318    1.5127885993    38.0856292113    S
F    4.3789213134    6.0715545262    37.7268650204    S
H    3.9765806179    5.3534613594    29.715341404900002    S
H    3.4448240295    5.8995152281    32.0723021098    S
H    5.3504662321    5.8076270519    40.1185698226    S
H    4.2369487403    1.6171932903    40.429612308    S
S    4.1950927820    2.7276247142    28.3506728308    S
H    3.2309081975    1.1805108088    30.5346643956    S
H    2.7079585445    1.7345202830    32.8867444185    S
S    5.6684205838    3.5424864196    42.0259671715    S
C    3.5849351130    3.7950077304    35.2187784101    S
C    4.8411466569    3.3698883115    35.0533697677    S
H    2.4094047612    4.9281719795    36.5908384237    S
H    2.0857426095    3.2031598772    36.6121496701    S
H    1.6662928993    3.7426183111    34.283340143000004    S
H    2.4826358369    5.2854736410    34.158884994800005    S
H    5.4677219270    3.1149586133    35.9083561096    S
H    5.2784677965    3.2641772612    34.0609560405    S
Au    8.7600000000    6.7434512120    44.183080063999995    R0
Au    5.8400000000    6.7434512120    44.183080063999995    R0
Au    2.9200000000    6.7434512120    44.183080063999995    R0
Au    7.3000000000    4.2146570440    44.183080063999995    R0
Au    4.3800000000    4.2146570440    44.183080063999995    R0
Au    1.4600000000    4.2146570440    44.183080063999995    R0
Au    5.8400000000    1.6858628760    44.183080063999995    R0
Au    2.9200000000    1.6858628760    44.183080063999995    R0
Au    0.0000000000    1.6858628760    44.183080063999995    R0
Au    10.2200000000    5.9005196280    46.56725013599999    R0
Au    7.3000000000    5.9005196280    46.56725013599999    R0
Au    4.3800000000    5.9005196280    46.56725013599999    R0
Au    8.7600000000    3.3717254600    46.56725013599999    R0
Au    5.8400000000    3.3717254600    46.56725013599999    R0
Au    2.9200000000    3.3717254600    46.56725013599999    R0
Au    7.3000000000    0.8429312920    46.56725013599999    R0
Au    4.3800000000    0.8429312920    46.56725013599999    R0
Au    1.4600000000    0.8429312920    46.56725013599999    R0
Au    8.7600000000    5.0575883360    48.951420207999995    R0
Au    5.8400000000    5.0575883360    48.951420207999995    R0
Au    2.9200000000    5.0575883360    48.951420207999995    R0
Au    7.3000000000    2.5287941680    48.951420207999995    R0
Au    4.3800000000    2.5287941680    48.951420207999995    R0
Au    1.4600000000    2.5287941680    48.951420207999995    R0
Au    5.8400000000    0.0000000000    48.951420207999995    R0
Au    2.9200000000    0.0000000000    48.951420207999995    R0
Au    0.0000000000    0.0000000000    48.951420207999995    R0
Au    8.7600000000    6.7434512120    51.33559028    R1
Au    5.8400000000    6.7434512120    51.33559028    R1
Au    2.9200000000    6.7434512120    51.33559028    R1
Au    7.3000000000    4.2146570440    51.33559028    R1
Au    4.3800000000    4.2146570440    51.33559028    R1
Au    1.4600000000    4.2146570440    51.33559028    R1
Au    5.8400000000    1.6858628760    51.33559028    R1
Au    2.9200000000    1.6858628760    51.33559028    R1
Au    0.0000000000    1.6858628760    51.33559028    R1
Au    10.2200000000    5.9005196280    53.719760352    R1
Au    7.3000000000    5.9005196280    53.719760352    R1
Au    4.3800000000    5.9005196280    53.719760352    R1
Au    8.7600000000    3.3717254600    53.719760352    R1
Au    5.8400000000    3.3717254600    53.719760352    R1
Au    2.9200000000    3.3717254600    53.719760352    R1
Au    7.3000000000    0.8429312920    53.719760352    R1
Au    4.3800000000    0.8429312920    53.719760352    R1
Au    1.4600000000    0.8429312920    53.719760352    R1
Au    8.7600000000    5.0575883360    56.103930424    R1
Au    5.8400000000    5.0575883360    56.103930424    R1
Au    2.9200000000    5.0575883360    56.103930424    R1
Au    7.3000000000    2.5287941680    56.103930424    R1
Au    4.3800000000    2.5287941680    56.103930424    R1
Au    1.4600000000    2.5287941680    56.103930424    R1
Au    5.8400000000    0.0000000000    56.103930424    R1
Au    2.9200000000    0.0000000000    56.103930424    R1
Au    0.0000000000    0.0000000000    56.103930424    R1
Au    8.7600000000    6.7434512120    58.488100204    R2
Au    5.8400000000    6.7434512120    58.488100204    R2
Au    2.9200000000    6.7434512120    58.488100204    R2
Au    7.3000000000    4.2146570440    58.488100204    R2
Au    4.3800000000    4.2146570440    58.488100204    R2
Au    1.4600000000    4.2146570440    58.488100204    R2
Au    5.8400000000    1.6858628760    58.488100204    R2
Au    2.9200000000    1.6858628760    58.488100204    R2
Au    0.0000000000    1.6858628760    58.488100204    R2
Au    10.2200000000    5.9005196280    60.872270276    R2
Au    7.3000000000    5.9005196280    60.872270276    R2
Au    4.3800000000    5.9005196280    60.872270276    R2
Au    8.7600000000    3.3717254600    60.872270276    R2
Au    5.8400000000    3.3717254600    60.872270276    R2
Au    2.9200000000    3.3717254600    60.872270276    R2
Au    7.3000000000    0.8429312920    60.872270276    R2
Au    4.3800000000    0.8429312920    60.872270276    R2
Au    1.4600000000    0.8429312920    60.872270276    R2
Au    8.7600000000    5.0575883360    63.256440348    R2
Au    5.8400000000    5.0575883360    63.256440348    R2
Au    2.9200000000    5.0575883360    63.256440348    R2
Au    7.3000000000    2.5287941680    63.256440348    R2
Au    4.3800000000    2.5287941680    63.256440348    R2
Au    1.4600000000    2.5287941680    63.256440348    R2
Au    5.8400000000    0.0000000000    63.256440348    R2
Au    2.9200000000    0.0000000000    63.256440348    R2
Au    0.0000000000    0.0000000000    63.256440348    R2
Au    8.7600000000    6.7434512120    65.64061012799999    R3
Au    5.8400000000    6.7434512120    65.64061012799999    R3
Au    2.9200000000    6.7434512120    65.64061012799999    R3
Au    7.3000000000    4.2146570440    65.64061012799999    R3
Au    4.3800000000    4.2146570440    65.64061012799999    R3
Au    1.4600000000    4.2146570440    65.64061012799999    R3
Au    5.8400000000    1.6858628760    65.64061012799999    R3
Au    2.9200000000    1.6858628760    65.64061012799999    R3
Au    0.0000000000    1.6858628760    65.64061012799999    R3
Au    10.2200000000    5.9005196280    68.02478020000001    R3
Au    7.3000000000    5.9005196280    68.02478020000001    R3
Au    4.3800000000    5.9005196280    68.02478020000001    R3
Au    8.7600000000    3.3717254600    68.02478020000001    R3
Au    5.8400000000    3.3717254600    68.02478020000001    R3
Au    2.9200000000    3.3717254600    68.02478020000001    R3
Au    7.3000000000    0.8429312920    68.02478020000001    R3
Au    4.3800000000    0.8429312920    68.02478020000001    R3
Au    1.4600000000    0.8429312920    68.02478020000001    R3
Au    8.7600000000    5.0575883360    70.408950272    R3
Au    5.8400000000    5.0575883360    70.408950272    R3
Au    2.9200000000    5.0575883360    70.408950272    R3
Au    7.3000000000    2.5287941680    70.408950272    R3
Au    4.3800000000    2.5287941680    70.408950272    R3
Au    1.4600000000    2.5287941680    70.408950272    R3
Au    5.8400000000    0.0000000000    70.408950272    R3
Au    2.9200000000    0.0000000000    70.408950272    R3
Au    0.0000000000    0.0000000000    70.408950272    R3
