95
	Energy: 6071692.6160802
Au         1.17661        0.57010        0.11556
Au         3.55594        0.58292        0.26402
Au         6.19373        0.43228        0.37171
Au         2.36513        2.63609        0.12608
Au         4.75328        2.63780       -0.06001
Au         6.79358        2.95355        0.16830
Au         3.51988        4.55227       -0.65552
Au         5.61977        4.72756        0.31060
Au         7.69599        4.75303        0.15763
Au         2.25286        1.31229        2.10651
Au         4.56692        1.42366        2.17895
Au         6.92334        0.75727        3.07244
Au         3.17957        3.72198        2.27593
Au         5.49402        2.85301        2.45222
Au         8.04807        2.72912        1.71942
Au         4.28795        5.13386        2.16528
Au         6.85838        5.12446        2.63842
Au         9.49104        5.69749        1.74148
Au         0.52988        1.60066        4.90905
Au         3.15700        2.26264        4.38673
Au         5.09816        3.05501        4.51915
Au         1.22580        4.24361        4.53955
Au         4.01360        4.58896        5.45065
Au         7.09054        4.34820        4.74374
Au         2.96881        6.74816        4.63374
Au         5.54923        6.49042        4.68017
Au         8.92975        6.23107        4.54699
C          6.26419        2.94011        8.13956
C          7.45176        2.98191        8.85601
C          7.57497        2.13446        9.91881
C          6.52708        1.26465       10.21480
C          5.16382        2.17419        8.46658
C          5.30347        1.30377        9.51855
C          6.62581        0.44915       11.41923
N          6.22078        1.38548       12.51194
H          5.89765       -0.38547       11.34285
H          7.64672       -0.01171       11.51007
C          5.64965        0.83324       13.80550
H          5.36960        1.89158       12.08454
H          8.49411        2.13159       10.48232
S          6.31206        3.76830        6.70122
H          4.24788        2.22693        7.88236
H          4.47333        0.66585        9.78882
N          8.55019        3.80405        8.46112
H          8.53425        4.42018        7.63362
H          9.47065        3.65506        8.87828
Au         8.76000        6.74345       22.43433
Au         5.84000        6.74345       22.43433
Au         2.92000        6.74345       22.43433
Au         7.30000        4.21466       22.43433
Au         4.38000        4.21466       22.43433
Au         1.46000        4.21466       22.43433
Au         5.84000        1.68586       22.43433
Au         2.92000        1.68586       22.43433
Au         0.00000        1.68586       22.43433
Au        10.22000        5.90052       24.81850
Au         7.30000        5.90052       24.81850
Au         4.38000        5.90052       24.81850
Au         8.76000        3.37173       24.81850
Au         5.84000        3.37173       24.81850
Au         2.92000        3.37173       24.81850
Au         7.30000        0.84293       24.81850
Au         4.38000        0.84293       24.81850
Au         1.46000        0.84293       24.81850
Au         8.76000        5.05759       27.20267
Au         5.84000        5.05759       27.20267
Au         2.92000        5.05759       27.20267
Au         7.30000        2.52879       27.20267
Au         4.38000        2.52879       27.20267
Au         1.46000        2.52879       27.20267
Au         5.84000        0.00000       27.20267
Au         2.92000        0.00000       27.20267
Au         0.00000        0.00000       27.20267
C          5.84017        0.80418       15.63728
C          5.89379        1.21271       17.24279
C          7.46077       -1.96446       17.62205
C          6.33067        0.05889       18.38143
C          6.51150       -1.40125       15.45652
C          6.11712       -1.20471       17.74032
C          7.13339        1.08173       15.32804
C          5.60306       -0.70373       16.30334
C          7.00001        2.10723       17.41435
C          7.74779        0.01153       18.89556
C          7.61549       -2.14847       16.15202
C          7.39395       -0.23141       15.40473
C          7.76422        2.11883       16.07414
C          7.91479        1.29583       18.30893
C          8.57083       -1.11410       18.17282
C          8.93812       -1.36108       15.82620
C          8.62256       -0.17211       15.06562
C          8.91856        1.18288       15.96400
C          9.04921        0.82779       17.36067
C          9.43409       -0.63346       17.12239
H          5.81800       -0.23301       13.45065
H          6.12531        1.88024       13.74587
