      61
 i =      327, E =     -1066.8439980818
 Au         0.0000000000        0.0000000000        0.0000000000
 Au         2.9200000000        0.0000000000        0.0000000000
 Au         5.8400000000        0.0000000000        0.0000000000
 Au         1.4600000000        2.5287941680        0.0000000000
 Au         4.3800000000        2.5287941680        0.0000000000
 Au         7.3000000000        2.5287941680        0.0000000000
 Au         2.9200000000        5.0575883360        0.0000000000
 Au         5.8400000000        5.0575883360        0.0000000000
 Au         8.7600000000        5.0575883360        0.0000000000
 Au         1.4600000000        0.8429312920        2.3841700720
 Au         4.3800000000        0.8429312920        2.3841700720
 Au         7.3000000000        0.8429312920        2.3841700720
 Au         2.9200000000        3.3717254600        2.3841700720
 Au         5.8400000000        3.3717254600        2.3841700720
 Au         8.7600000000        3.3717254600        2.3841700720
 Au         4.3800000000        5.9005196280        2.3841700720
 Au         7.3000000000        5.9005196280        2.3841700720
 Au        10.2200000000        5.9005196280        2.3841700720
 Au         0.0000000000        1.6858628760        4.7683401440
 Au         2.9200000000        1.6858628760        4.7683401440
 Au         5.8400000000        1.6858628760        4.7683401440
 Au         1.4600000000        4.2146570440        4.7683401440
 Au         4.3800000000        4.2146570440        4.7683401440
 Au         7.3000000000        4.2146570440        4.7683401440
 Au         2.9200000000        6.7434512120        4.7683401440
 Au         5.8400000000        6.7434512120        4.7683401440
 Au         8.7600000000        6.7434512120        4.7683401440
  C         6.1620137830        3.1912765207        8.1377852220
  C         7.3940586266        3.1727073435        8.8627947429
  C         7.5166689618        2.2822526784        9.9459605474
  C         6.4924142079        1.4089642670       10.3047680493
  C         5.1538068248        2.2694520437        8.4733943207
  C         5.3099436029        1.3908411708        9.5408826171
  C         6.6460111184        0.5408811112       11.5335966343
  N         6.4554531424        1.3398900548       12.7551978138
  H         5.9523225377       -0.3232994675       11.4695924559
  H         7.6663099544        0.1242266050       11.5714383910
  C         6.6887878674        0.5934247220       13.9923746659
  H         5.5021517236        1.7204381591       12.7567190208
  C         6.4968148511        1.4531247590       15.2273688356
  H         7.7325898361        0.2306497346       13.9595970445
  H         6.0569269161       -0.3155164694       14.0877838196
  C         6.6131743384        2.8635833978       15.1624241992
  C         6.4303260422        3.6699442729       16.2722552957
  C         6.1264631586        3.1073132313       17.5386491433
  C         6.2222550693        0.8775317032       16.4609873692
  C         6.0539658889        1.6934226871       17.5899313973
  H         8.4385967085        2.2947868848       10.5323234813
  H         6.5145211810        4.7528814514       16.1859033284
  S         5.8944419349        4.4790294986        6.9660342932
  H         4.2347469043        2.2661524032        7.8862982633
  H         4.5126888775        0.6871148285        9.7862550163
  S         5.8648425375        4.0604730978       18.9366439089
  N         5.8005484864        1.0990525732       18.8622106069
  O         5.8322149403       -0.1325561196       19.0292747645
  O         5.5524618383        1.8990441875       19.8341595037
  N         8.4153347932        4.0511007187        8.5630080422
  H         8.4087715929        4.4672880351        7.6295537052
  H         9.3427279352        3.8004804515        8.8988981042
  H         6.1261265496       -0.2011285561       16.5876537620
  H         6.8462409246        3.3162031073       14.1979995759
 Au         8.7600000000        6.7434512120       50.2078593240 R2
 Au         5.8400000000        6.7434512120       50.2078593240 R2
 Au         2.9200000000        6.7434512120       50.2078593240 R2
 Au         7.3000000000        4.2146570440       50.2078593240 R2
 Au         4.3800000000        4.2146570440       50.2078593240 R2
 Au         1.4600000000        4.2146570440       50.2078593240 R2
 Au         5.8400000000        1.6858628760       50.2078593240 R2
 Au         2.9200000000        1.6858628760       50.2078593240 R2
 Au         0.0000000000        1.6858628760       50.2078593240 R2
 Au        10.2200000000        5.9005196280       52.5920293960 R2
 Au         7.3000000000        5.9005196280       52.5920293960 R2
 Au         4.3800000000        5.9005196280       52.5920293960 R2
 Au         8.7600000000        3.3717254600       52.5920293960 R2
 Au         5.8400000000        3.3717254600       52.5920293960 R2
 Au         2.9200000000        3.3717254600       52.5920293960 R2
 Au         7.3000000000        0.8429312920       52.5920293960 R2
 Au         4.3800000000        0.8429312920       52.5920293960 R2
 Au         1.4600000000        0.8429312920       52.5920293960 R2
 Au         8.7600000000        5.0575883360       54.9761994680 R2
 Au         5.8400000000        5.0575883360       54.9761994680 R2
 Au         2.9200000000        5.0575883360       54.9761994680 R2
 Au         7.3000000000        2.5287941680       54.9761994680 R2
 Au         4.3800000000        2.5287941680       54.9761994680 R2
 Au         1.4600000000        2.5287941680       54.9761994680 R2
 Au         5.8400000000        0.0000000000       54.9761994680 R2
 Au         2.9200000000        0.0000000000       54.9761994680 R2
 Au         0.0000000000        0.0000000000       54.9761994680 R2
