      68
 i =      314, E =     -1091.9992201778
 Au         0.0000000000        0.0000000000        0.0000000000
 Au         2.9200000000        0.0000000000        0.0000000000
 Au         5.8400000000        0.0000000000        0.0000000000
 Au         1.4600000000        2.5287941680        0.0000000000
 Au         4.3800000000        2.5287941680        0.0000000000
 Au         7.3000000000        2.5287941680        0.0000000000
 Au         2.9200000000        5.0575883360        0.0000000000
 Au         5.8400000000        5.0575883360        0.0000000000
 Au         8.7600000000        5.0575883360        0.0000000000
 Au         1.4600000000        0.8429312920        2.3841700720
 Au         4.3800000000        0.8429312920        2.3841700720
 Au         7.3000000000        0.8429312920        2.3841700720
 Au         2.9200000000        3.3717254600        2.3841700720
 Au         5.8400000000        3.3717254600        2.3841700720
 Au         8.7600000000        3.3717254600        2.3841700720
 Au         4.3800000000        5.9005196280        2.3841700720
 Au         7.3000000000        5.9005196280        2.3841700720
 Au        10.2200000000        5.9005196280        2.3841700720
 Au         0.0000000000        1.6858628760        4.7683401440
 Au         2.9200000000        1.6858628760        4.7683401440
 Au         5.8400000000        1.6858628760        4.7683401440
 Au         1.4600000000        4.2146570440        4.7683401440
 Au         4.3800000000        4.2146570440        4.7683401440
 Au         7.3000000000        4.2146570440        4.7683401440
 Au         2.9200000000        6.7434512120        4.7683401440
 Au         5.8400000000        6.7434512120        4.7683401440
 Au         8.7600000000        6.7434512120        4.7683401440
  C         5.8408449566        2.6591659417        7.7682505208
  C         7.0619034345        2.1069725323        8.2563476922
  C         7.0382518207        0.8200187877        8.8292942460
  C         5.8647722525        0.0742136333        8.9320051952
  C         4.6561659239        1.9102778391        7.9113048029
  C         4.6610765461        0.6383826236        8.4786245704
  C         5.8865685956       -1.3204536978        9.5053491430
  N         5.6557570035       -1.3184772701       10.9616522884
  H         5.1397773527       -1.9468793114        8.9757989812
  H         6.8703165160       -1.7803069873        9.3151875273
  C         5.5978172933       -2.6563518729       11.5489112308
  H         4.7890388921       -0.8134410062       11.1611524179
  H         7.9787444204        0.3875591834        9.1786890435
  S         5.8170220928        4.2718953519        7.0363645384
  H         3.7272389735        2.3370991280        7.5315315738
  H         3.7346135118        0.0632200903        8.5254810223
  N         8.2485983630        2.8223299240        8.1934863692
  H         8.2608871426        3.5601539089        7.4822561743
  H         9.0910533434        2.2482008594        8.1602092318
  C         7.0799829491       -4.5327141378       12.7060728534
  C         7.5976116825       -4.4003962766       14.0446158885
  C        10.3867164779       -5.2182646630       12.5373173605
  C         8.8045137704       -5.1993455922       14.2332635992
  C         8.7194717747       -4.5285717963       11.0127956343
  C         9.1112817378       -5.7772562030       12.9686064336
  C         6.9602024180       -3.1181810441       12.0372161533
  C         8.0796607845       -5.3094963078       12.0390099614
  C         7.9219419069       -3.0301367458       14.3255802045
  C         9.9012390875       -4.2969604476       14.5881217020
  C        10.1641205387       -4.4842120535       11.3162134922
  C         8.1698658390       -3.2189139732       11.0533930544
  C         7.6798024496       -2.2797973483       13.1402868139
  C         9.3571358873       -2.9675509460       14.6717538379
  C        10.9368730755       -4.3463012295       13.5646140339
  C        10.4865315723       -3.1208070775       11.5916304947
  C         9.2578010318       -2.3485838670       11.4420607909
  C         8.9529145929       -1.7669669835       12.7106364947
  C         9.9939413075       -2.1898619847       13.6514120195
  C        10.9736153662       -3.0085050593       12.9652081021
  H         5.1882751101       -3.4128094089       10.8499467147
  H         4.9211509128       -2.6346207784       12.4154880123