      82
 i =      167, E =     -1901.8365203667
 Au         0.0000000000        0.0000000000        0.0000000000
 Au         2.9200000000        0.0000000000        0.0000000000
 Au         5.8400000000        0.0000000000        0.0000000000
 Au         1.4600000000        2.5287941680        0.0000000000
 Au         4.3800000000        2.5287941680        0.0000000000
 Au         7.3000000000        2.5287941680        0.0000000000
 Au         2.9200000000        5.0575883360        0.0000000000
 Au         5.8400000000        5.0575883360        0.0000000000
 Au         8.7600000000        5.0575883360        0.0000000000
 Au         1.4600000000        0.8429312920        2.3841700720
 Au         4.3800000000        0.8429312920        2.3841700720
 Au         7.3000000000        0.8429312920        2.3841700720
 Au         2.9200000000        3.3717254600        2.3841700720
 Au         5.8400000000        3.3717254600        2.3841700720
 Au         8.7600000000        3.3717254600        2.3841700720
 Au         4.3800000000        5.9005196280        2.3841700720
 Au         7.3000000000        5.9005196280        2.3841700720
 Au        10.2200000000        5.9005196280        2.3841700720
 Au         0.0000000000        1.6858628760        4.7683401440
 Au         2.9200000000        1.6858628760        4.7683401440
 Au         5.8400000000        1.6858628760        4.7683401440
 Au         1.4600000000        4.2146570440        4.7683401440
 Au         4.3800000000        4.2146570440        4.7683401440
 Au         7.3000000000        4.2146570440        4.7683401440
 Au         2.9200000000        6.7434512120        4.7683401440
 Au         5.8400000000        6.7434512120        4.7683401440
 Au         8.7600000000        6.7434512120        4.7683401440
  C         2.5505859306        3.7036416074       16.2411027429
  C         3.3996374582        4.5305004148       15.4893541475
  C         3.5051342773        4.3690323350       14.1139284882
  C         2.7630854994        3.3767233891       13.4473596618
  C         1.8196073407        2.7031023253       15.5837157054
  C         1.9198596897        2.5456494293       14.2068824248
  C         2.8622897689        3.2159852476       11.9868887092
  H         4.1423865034        5.0410133605       13.5380698437
  S         3.7920882036        2.9218523868       18.5537606679
  H         1.1662885425        2.0473894768       16.1622930834
  H         1.3561754555        1.7546187912       13.7111381600
  H         3.9679405171        5.3151591520       15.9921860672
  C         4.0922616438        3.3883360525       11.3258387480
  C         4.1881309550        3.2222104629        9.9501728896
  C         3.0567544269        2.8810439034        9.1928745380
  C         1.8251284285        2.7217360347        9.8449293579
  C         1.7303820443        2.8810297330       11.2219640110
  H         5.1517596432        3.3416318552        9.4515178994
  H         4.9861978513        3.6193859736       11.9061037779
  H         0.9379230949        2.4674978194        9.2619962376
  H         0.7637905860        2.7671049683       11.7139262635
  S         2.9792559650        4.3521539454        6.8830056963
  C         2.4300060340        3.8861752989       17.7140026664
  H         1.4664417051        3.5159726520       18.0895279370
  H         2.5485348453        4.9367692508       18.0056955539
  C         3.1639259879        2.6920011085        7.7197880805
  H         2.3767071718        2.0266262619        7.3393707569
  H         4.1424347284        2.2903323251        7.4301582183
 Au         8.7600000000        6.7434512120       20.6670700000
 Au         5.8400000000        6.7434512120       20.6670700000
 Au         2.9200000000        6.7434512120       20.6670700000
 Au         7.3000000000        4.2146570440       20.6670700000
 Au         4.3800000000        4.2146570440       20.6670700000
 Au         1.4600000000        4.2146570440       20.6670700000
 Au         5.8400000000        1.6858628760       20.6670700000
 Au         2.9200000000        1.6858628760       20.6670700000
 Au         0.0000000000        1.6858628760       20.6670700000
 Au        10.2200000000        5.9005196280       23.0512400720
 Au         7.3000000000        5.9005196280       23.0512400720
 Au         4.3800000000        5.9005196280       23.0512400720
 Au         8.7600000000        3.3717254600       23.0512400720
 Au         5.8400000000        3.3717254600       23.0512400720
 Au         2.9200000000        3.3717254600       23.0512400720
 Au         7.3000000000        0.8429312920       23.0512400720
 Au         4.3800000000        0.8429312920       23.0512400720
 Au         1.4600000000        0.8429312920       23.0512400720
 Au         8.7600000000        5.0575883360       25.4354101440
 Au         5.8400000000        5.0575883360       25.4354101440
 Au         2.9200000000        5.0575883360       25.4354101440
 Au         7.3000000000        2.5287941680       25.4354101440
 Au         4.3800000000        2.5287941680       25.4354101440
 Au         1.4600000000        2.5287941680       25.4354101440
 Au         5.8400000000        0.0000000000       25.4354101440
 Au         2.9200000000        0.0000000000       25.4354101440
 Au         0.0000000000        0.0000000000       25.4354101440
Au    8.7600000000    6.7434512120    48.31402028    R1
Au    5.8400000000    6.7434512120    48.31402028    R1
Au    2.9200000000    6.7434512120    48.31402028    R1
Au    7.3000000000    4.2146570440    48.31402028    R1
Au    4.3800000000    4.2146570440    48.31402028    R1
Au    1.4600000000    4.2146570440    48.31402028    R1
Au    5.8400000000    1.6858628760    48.31402028    R1
Au    2.9200000000    1.6858628760    48.31402028    R1
Au    0.0000000000    1.6858628760    48.31402028    R1
Au    10.2200000000    5.9005196280    50.698190352000005    R1
Au    7.3000000000    5.9005196280    50.698190352000005    R1
Au    4.3800000000    5.9005196280    50.698190352000005    R1
Au    8.7600000000    3.3717254600    50.698190352000005    R1
Au    5.8400000000    3.3717254600    50.698190352000005    R1
Au    2.9200000000    3.3717254600    50.698190352000005    R1
Au    7.3000000000    0.8429312920    50.698190352000005    R1
Au    4.3800000000    0.8429312920    50.698190352000005    R1
Au    1.4600000000    0.8429312920    50.698190352000005    R1
Au    8.7600000000    5.0575883360    53.082360424    R1
Au    5.8400000000    5.0575883360    53.082360424    R1
Au    2.9200000000    5.0575883360    53.082360424    R1
Au    7.3000000000    2.5287941680    53.082360424    R1
Au    4.3800000000    2.5287941680    53.082360424    R1
Au    1.4600000000    2.5287941680    53.082360424    R1
Au    5.8400000000    0.0000000000    53.082360424    R1
Au    2.9200000000    0.0000000000    53.082360424    R1
Au    0.0000000000    0.0000000000    53.082360424    R1
Au    8.7600000000    6.7434512120    55.466530204    R2
Au    5.8400000000    6.7434512120    55.466530204    R2
Au    2.9200000000    6.7434512120    55.466530204    R2
Au    7.3000000000    4.2146570440    55.466530204    R2
Au    4.3800000000    4.2146570440    55.466530204    R2
Au    1.4600000000    4.2146570440    55.466530204    R2
Au    5.8400000000    1.6858628760    55.466530204    R2
Au    2.9200000000    1.6858628760    55.466530204    R2
Au    0.0000000000    1.6858628760    55.466530204    R2
Au    10.2200000000    5.9005196280    57.850700276000005    R2
Au    7.3000000000    5.9005196280    57.850700276000005    R2
Au    4.3800000000    5.9005196280    57.850700276000005    R2
Au    8.7600000000    3.3717254600    57.850700276000005    R2
Au    5.8400000000    3.3717254600    57.850700276000005    R2
Au    2.9200000000    3.3717254600    57.850700276000005    R2
Au    7.3000000000    0.8429312920    57.850700276000005    R2
Au    4.3800000000    0.8429312920    57.850700276000005    R2
Au    1.4600000000    0.8429312920    57.850700276000005    R2
Au    8.7600000000    5.0575883360    60.234870348    R2
Au    5.8400000000    5.0575883360    60.234870348    R2
Au    2.9200000000    5.0575883360    60.234870348    R2
Au    7.3000000000    2.5287941680    60.234870348    R2
Au    4.3800000000    2.5287941680    60.234870348    R2
Au    1.4600000000    2.5287941680    60.234870348    R2
Au    5.8400000000    0.0000000000    60.234870348    R2
Au    2.9200000000    0.0000000000    60.234870348    R2
Au    0.0000000000    0.0000000000    60.234870348    R2
Au    8.7600000000    6.7434512120    62.619040128    R3
Au    5.8400000000    6.7434512120    62.619040128    R3
Au    2.9200000000    6.7434512120    62.619040128    R3
Au    7.3000000000    4.2146570440    62.619040128    R3
Au    4.3800000000    4.2146570440    62.619040128    R3
Au    1.4600000000    4.2146570440    62.619040128    R3
Au    5.8400000000    1.6858628760    62.619040128    R3
Au    2.9200000000    1.6858628760    62.619040128    R3
Au    0.0000000000    1.6858628760    62.619040128    R3
Au    10.2200000000    5.9005196280    65.00321020000001    R3
Au    7.3000000000    5.9005196280    65.00321020000001    R3
Au    4.3800000000    5.9005196280    65.00321020000001    R3
Au    8.7600000000    3.3717254600    65.00321020000001    R3
Au    5.8400000000    3.3717254600    65.00321020000001    R3
Au    2.9200000000    3.3717254600    65.00321020000001    R3
Au    7.3000000000    0.8429312920    65.00321020000001    R3
Au    4.3800000000    0.8429312920    65.00321020000001    R3
Au    1.4600000000    0.8429312920    65.00321020000001    R3
Au    8.7600000000    5.0575883360    67.387380272    R3
Au    5.8400000000    5.0575883360    67.387380272    R3
Au    2.9200000000    5.0575883360    67.387380272    R3
Au    7.3000000000    2.5287941680    67.387380272    R3
Au    4.3800000000    2.5287941680    67.387380272    R3
Au    1.4600000000    2.5287941680    67.387380272    R3
Au    5.8400000000    0.0000000000    67.387380272    R3
Au    2.9200000000    0.0000000000    67.387380272    R3
Au    0.0000000000    0.0000000000    67.387380272    R3