     244
 i =       71, E =     -1888.0436785968
 Au         0.0000000000        0.0000000000        0.0000000000 L3
 Au         2.9200000000        0.0000000000        0.0000000000 L3
 Au         5.8400000000        0.0000000000        0.0000000000 L3
 Au         1.4600000000        2.5287941680        0.0000000000 L3
 Au         4.3800000000        2.5287941680        0.0000000000 L3
 Au         7.3000000000        2.5287941680        0.0000000000 L3
 Au         2.9200000000        5.0575883360        0.0000000000 L3
 Au         5.8400000000        5.0575883360        0.0000000000 L3
 Au         8.7600000000        5.0575883360        0.0000000000 L3
 Au         1.4600000000        0.8429312920        2.3841700720 L3
 Au         4.3800000000        0.8429312920        2.3841700720 L3
 Au         7.3000000000        0.8429312920        2.3841700720 L3
 Au         2.9200000000        3.3717254600        2.3841700720 L3
 Au         5.8400000000        3.3717254600        2.3841700720 L3
 Au         8.7600000000        3.3717254600        2.3841700720 L3
 Au         4.3800000000        5.9005196280        2.3841700720 L3
 Au         7.3000000000        5.9005196280        2.3841700720 L3
 Au        10.2200000000        5.9005196280        2.3841700720 L3
 Au         0.0000000000        1.6858628760        4.7683401440 L3
 Au         2.9200000000        1.6858628760        4.7683401440 L3
 Au         5.8400000000        1.6858628760        4.7683401440 L3
 Au         1.4600000000        4.2146570440        4.7683401440 L3
 Au         4.3800000000        4.2146570440        4.7683401440 L3
 Au         7.3000000000        4.2146570440        4.7683401440 L3
 Au         2.9200000000        6.7434512120        4.7683401440 L3
 Au         5.8400000000        6.7434512120        4.7683401440 L3
 Au         8.7600000000        6.7434512120        4.7683401440 L3
 Au         0.0000000000        0.0000000000        7.1525099240 L2
 Au         2.9200000000        0.0000000000        7.1525099240 L2
 Au         5.8400000000        0.0000000000        7.1525099240 L2
 Au         1.4600000000        2.5287941680        7.1525099240 L2
 Au         4.3800000000        2.5287941680        7.1525099240 L2
 Au         7.3000000000        2.5287941680        7.1525099240 L2
 Au         2.9200000000        5.0575883360        7.1525099240 L2
 Au         5.8400000000        5.0575883360        7.1525099240 L2
 Au         8.7600000000        5.0575883360        7.1525099240 L2
 Au         1.4600000000        0.8429312920        9.5366799960 L2
 Au         4.3800000000        0.8429312920        9.5366799960 L2
 Au         7.3000000000        0.8429312920        9.5366799960 L2
 Au         2.9200000000        3.3717254600        9.5366799960 L2
 Au         5.8400000000        3.3717254600        9.5366799960 L2
 Au         8.7600000000        3.3717254600        9.5366799960 L2
 Au         4.3800000000        5.9005196280        9.5366799960 L2
 Au         7.3000000000        5.9005196280        9.5366799960 L2
 Au        10.2200000000        5.9005196280        9.5366799960 L2
 Au         0.0000000000        1.6858628760       11.9208500680 L2
 Au         2.9200000000        1.6858628760       11.9208500680 L2
 Au         5.8400000000        1.6858628760       11.9208500680 L2
 Au         1.4600000000        4.2146570440       11.9208500680 L2
 Au         4.3800000000        4.2146570440       11.9208500680 L2
 Au         7.3000000000        4.2146570440       11.9208500680 L2
 Au         2.9200000000        6.7434512120       11.9208500680 L2
 Au         5.8400000000        6.7434512120       11.9208500680 L2
 Au         8.7600000000        6.7434512120       11.9208500680 L2
 Au         0.0000000000        0.0000000000       14.3050198480 L1
 Au         2.9200000000        0.0000000000       14.3050198480 L1
 Au         5.8400000000        0.0000000000       14.3050198480 L1
 Au         1.4600000000        2.5287941680       14.3050198480 L1
 Au         4.3800000000        2.5287941680       14.3050198480 L1
 Au         7.3000000000        2.5287941680       14.3050198480 L1
 Au         2.9200000000        5.0575883360       14.3050198480 L1
 Au         5.8400000000        5.0575883360       14.3050198480 L1
 Au         8.7600000000        5.0575883360       14.3050198480 L1
 Au         1.4600000000        0.8429312920       16.6891899200 L1
 Au         4.3800000000        0.8429312920       16.6891899200 L1
 Au         7.3000000000        0.8429312920       16.6891899200 L1
 Au         2.9200000000        3.3717254600       16.6891899200 L1
 Au         5.8400000000        3.3717254600       16.6891899200 L1
 Au         8.7600000000        3.3717254600       16.6891899200 L1
 Au         4.3800000000        5.9005196280       16.6891899200 L1
 Au         7.3000000000        5.9005196280       16.6891899200 L1
 Au        10.2200000000        5.9005196280       16.6891899200 L1
 Au         0.0000000000        1.6858628760       19.0733599920 L1
 Au         2.9200000000        1.6858628760       19.0733599920 L1
 Au         5.8400000000        1.6858628760       19.0733599920 L1
 Au         1.4600000000        4.2146570440       19.0733599920 L1
 Au         4.3800000000        4.2146570440       19.0733599920 L1
 Au         7.3000000000        4.2146570440       19.0733599920 L1
 Au         2.9200000000        6.7434512120       19.0733599920 L1
 Au         5.8400000000        6.7434512120       19.0733599920 L1
 Au         8.7600000000        6.7434512120       19.0733599920 L1
Au    0.0000000000    0.0000000000    21.457530064    L0
Au    2.9200000000    0.0000000000    21.457530064    L0
Au    5.8400000000    0.0000000000    21.457530064    L0
Au    1.4600000000    2.5287941680    21.457530064    L0
Au    4.3800000000    2.5287941680    21.457530064    L0
Au    7.3000000000    2.5287941680    21.457530064    L0
Au    2.9200000000    5.0575883360    21.457530064    L0
Au    5.8400000000    5.0575883360    21.457530064    L0
Au    8.7600000000    5.0575883360    21.457530064    L0
Au    1.4600000000    0.8429312920    23.841700136    L0
Au    4.3800000000    0.8429312920    23.841700136    L0
Au    7.3000000000    0.8429312920    23.841700136    L0
Au    2.9200000000    3.3717254600    23.841700136    L0
Au    5.8400000000    3.3717254600    23.841700136    L0
Au    8.7600000000    3.3717254600    23.841700136    L0
Au    4.3800000000    5.9005196280    23.841700136    L0
Au    7.3000000000    5.9005196280    23.841700136    L0
Au    10.2200000000    5.9005196280    23.841700136    L0
Au    0.0000000000    1.6858628760    26.225870208    L0
Au    2.9200000000    1.6858628760    26.225870208    L0
Au    5.8400000000    1.6858628760    26.225870208    L0
Au    1.4600000000    4.2146570440    26.225870208    L0
Au    4.3800000000    4.2146570440    26.225870208    L0
Au    7.3000000000    4.2146570440    26.225870208    L0
Au    2.9200000000    6.7434512120    26.225870208    L0
Au    5.8400000000    6.7434512120    26.225870208    L0
Au    8.7600000000    6.7434512120    26.225870208    L0
C    2.5505859306    3.7036416074    37.6986328069    S
C    3.3996374582    4.5305004148    36.9468842115    S
C    3.5051342773    4.3690323350    35.5714585522    S
C    2.7630854994    3.3767233891    34.904889725800004    S
C    1.8196073407    2.7031023253    37.0412457694    S
C    1.9198596897    2.5456494293    35.6644124888    S
C    2.8622897689    3.2159852476    33.4444187732    S
H    4.1423865034    5.0410133605    34.9955999077    S
S    3.7920882036    2.9218523868    40.011290731900004    S
H    1.1662885425    2.0473894768    37.6198231474    S
H    1.3561754555    1.7546187912    35.168668224    S
H    3.9679405171    5.3151591520    37.4497161312    S
C    4.0922616438    3.3883360525    32.783368812    S
C    4.1881309550    3.2222104629    31.4077029536    S
C    3.0567544269    2.8810439034    30.650404602000002    S
C    1.8251284285    2.7217360347    31.3024594219    S
C    1.7303820443    2.8810297330    32.679494075    S
H    5.1517596432    3.3416318552    30.9090479634    S
H    4.9861978513    3.6193859736    33.3636338419    S
H    0.9379230949    2.4674978194    30.7195263016    S
H    0.7637905860    2.7671049683    33.171456327499996    S
S    2.9792559650    4.3521539454    28.3405357603    S
C    2.4300060340    3.8861752989    39.1715327304    S
H    1.4664417051    3.5159726520    39.547058000999996    S
H    2.5485348453    4.9367692508    39.4632256179    S
C    3.1639259879    2.6920011085    29.1773181445    S
H    2.3767071718    2.0266262619    28.7969008209    S
H    4.1424347284    2.2903323251    28.8876882823    S
Au    8.7600000000    6.7434512120    42.124600064    R0
Au    5.8400000000    6.7434512120    42.124600064    R0
Au    2.9200000000    6.7434512120    42.124600064    R0
Au    7.3000000000    4.2146570440    42.124600064    R0
Au    4.3800000000    4.2146570440    42.124600064    R0
Au    1.4600000000    4.2146570440    42.124600064    R0
Au    5.8400000000    1.6858628760    42.124600064    R0
Au    2.9200000000    1.6858628760    42.124600064    R0
Au    0.0000000000    1.6858628760    42.124600064    R0
Au    10.2200000000    5.9005196280    44.508770135999995    R0
Au    7.3000000000    5.9005196280    44.508770135999995    R0
Au    4.3800000000    5.9005196280    44.508770135999995    R0
Au    8.7600000000    3.3717254600    44.508770135999995    R0
Au    5.8400000000    3.3717254600    44.508770135999995    R0
Au    2.9200000000    3.3717254600    44.508770135999995    R0
Au    7.3000000000    0.8429312920    44.508770135999995    R0
Au    4.3800000000    0.8429312920    44.508770135999995    R0
Au    1.4600000000    0.8429312920    44.508770135999995    R0
Au    8.7600000000    5.0575883360    46.892940208    R0
Au    5.8400000000    5.0575883360    46.892940208    R0
Au    2.9200000000    5.0575883360    46.892940208    R0
Au    7.3000000000    2.5287941680    46.892940208    R0
Au    4.3800000000    2.5287941680    46.892940208    R0
Au    1.4600000000    2.5287941680    46.892940208    R0
Au    5.8400000000    0.0000000000    46.892940208    R0
Au    2.9200000000    0.0000000000    46.892940208    R0
Au    0.0000000000    0.0000000000    46.892940208    R0
Au    8.7600000000    6.7434512120    49.27711028    R1
Au    5.8400000000    6.7434512120    49.27711028    R1
Au    2.9200000000    6.7434512120    49.27711028    R1
Au    7.3000000000    4.2146570440    49.27711028    R1
Au    4.3800000000    4.2146570440    49.27711028    R1
Au    1.4600000000    4.2146570440    49.27711028    R1
Au    5.8400000000    1.6858628760    49.27711028    R1
Au    2.9200000000    1.6858628760    49.27711028    R1
Au    0.0000000000    1.6858628760    49.27711028    R1
Au    10.2200000000    5.9005196280    51.661280352000006    R1
Au    7.3000000000    5.9005196280    51.661280352000006    R1
Au    4.3800000000    5.9005196280    51.661280352000006    R1
Au    8.7600000000    3.3717254600    51.661280352000006    R1
Au    5.8400000000    3.3717254600    51.661280352000006    R1
Au    2.9200000000    3.3717254600    51.661280352000006    R1
Au    7.3000000000    0.8429312920    51.661280352000006    R1
Au    4.3800000000    0.8429312920    51.661280352000006    R1
Au    1.4600000000    0.8429312920    51.661280352000006    R1
Au    8.7600000000    5.0575883360    54.045450424    R1
Au    5.8400000000    5.0575883360    54.045450424    R1
Au    2.9200000000    5.0575883360    54.045450424    R1
Au    7.3000000000    2.5287941680    54.045450424    R1
Au    4.3800000000    2.5287941680    54.045450424    R1
Au    1.4600000000    2.5287941680    54.045450424    R1
Au    5.8400000000    0.0000000000    54.045450424    R1
Au    2.9200000000    0.0000000000    54.045450424    R1
Au    0.0000000000    0.0000000000    54.045450424    R1
Au    8.7600000000    6.7434512120    56.429620204    R2
Au    5.8400000000    6.7434512120    56.429620204    R2
Au    2.9200000000    6.7434512120    56.429620204    R2
Au    7.3000000000    4.2146570440    56.429620204    R2
Au    4.3800000000    4.2146570440    56.429620204    R2
Au    1.4600000000    4.2146570440    56.429620204    R2
Au    5.8400000000    1.6858628760    56.429620204    R2
Au    2.9200000000    1.6858628760    56.429620204    R2
Au    0.0000000000    1.6858628760    56.429620204    R2
Au    10.2200000000    5.9005196280    58.813790276000006    R2
Au    7.3000000000    5.9005196280    58.813790276000006    R2
Au    4.3800000000    5.9005196280    58.813790276000006    R2
Au    8.7600000000    3.3717254600    58.813790276000006    R2
Au    5.8400000000    3.3717254600    58.813790276000006    R2
Au    2.9200000000    3.3717254600    58.813790276000006    R2
Au    7.3000000000    0.8429312920    58.813790276000006    R2
Au    4.3800000000    0.8429312920    58.813790276000006    R2
Au    1.4600000000    0.8429312920    58.813790276000006    R2
Au    8.7600000000    5.0575883360    61.197960348    R2
Au    5.8400000000    5.0575883360    61.197960348    R2
Au    2.9200000000    5.0575883360    61.197960348    R2
Au    7.3000000000    2.5287941680    61.197960348    R2
Au    4.3800000000    2.5287941680    61.197960348    R2
Au    1.4600000000    2.5287941680    61.197960348    R2
Au    5.8400000000    0.0000000000    61.197960348    R2
Au    2.9200000000    0.0000000000    61.197960348    R2
Au    0.0000000000    0.0000000000    61.197960348    R2
Au    8.7600000000    6.7434512120    63.582130128    R3
Au    5.8400000000    6.7434512120    63.582130128    R3
Au    2.9200000000    6.7434512120    63.582130128    R3
Au    7.3000000000    4.2146570440    63.582130128    R3
Au    4.3800000000    4.2146570440    63.582130128    R3
Au    1.4600000000    4.2146570440    63.582130128    R3
Au    5.8400000000    1.6858628760    63.582130128    R3
Au    2.9200000000    1.6858628760    63.582130128    R3
Au    0.0000000000    1.6858628760    63.582130128    R3
Au    10.2200000000    5.9005196280    65.9663002    R3
Au    7.3000000000    5.9005196280    65.9663002    R3
Au    4.3800000000    5.9005196280    65.9663002    R3
Au    8.7600000000    3.3717254600    65.9663002    R3
Au    5.8400000000    3.3717254600    65.9663002    R3
Au    2.9200000000    3.3717254600    65.9663002    R3
Au    7.3000000000    0.8429312920    65.9663002    R3
Au    4.3800000000    0.8429312920    65.9663002    R3
Au    1.4600000000    0.8429312920    65.9663002    R3
Au    8.7600000000    5.0575883360    68.350470272    R3
Au    5.8400000000    5.0575883360    68.350470272    R3
Au    2.9200000000    5.0575883360    68.350470272    R3
Au    7.3000000000    2.5287941680    68.350470272    R3
Au    4.3800000000    2.5287941680    68.350470272    R3
Au    1.4600000000    2.5287941680    68.350470272    R3
Au    5.8400000000    0.0000000000    68.350470272    R3
Au    2.9200000000    0.0000000000    68.350470272    R3
Au    0.0000000000    0.0000000000    68.350470272    R3
