      56
 i =      202, E =      -215.2814352197
  C        -2.3526003462        0.8374512034      -11.8677046834
  C        -2.3158584166        2.2084861862      -11.5204845380
  C        -2.8613860360        2.6464595540      -10.3184686022
  C        -3.4657369238        1.7509063754       -9.4212630340
  C        -2.9606063511       -0.0665499005      -10.9634820889
  C        -3.5040005058        0.3893916023       -9.7688413451
  C        -4.0426010728        2.2279617974       -8.1141954379
  C        -3.8053456627        2.5552243291       -5.6079744139
  C        -3.0030054998        2.3657431889       -4.3473684586
  C        -2.3102731210        3.4346658826       -3.7570337378
  C        -1.5500632555        3.2557861660       -2.6059893332
  C        -1.4501672386        1.9800560684       -2.0024752695
  C        -2.9142291847        1.1014994709       -3.7385944570
  C        -2.1548013232        0.9031947933       -2.5926198789
  H        -1.8557789592        2.9168744358      -12.2087219754
  H        -2.8227353903        3.7088806586      -10.0694828236
  H        -1.0247865849        4.0972061501       -2.1547821354
  H        -2.0960992901       -0.0831292458       -2.1328255638
  C        -1.8030530405        0.3815690106      -13.0841765227
  H        -3.0019544024       -1.1246471749      -11.2211030509
  H        -3.9717779382       -0.3232187209       -9.0866789236
  C        -0.6666635075        1.7871172328       -0.8455525901
  C        -3.1371743524        2.1008659992       -6.8978771411
  C        -1.8808209565        1.6416458958       -6.9574500920
  H        -4.0792282377        3.6193335017       -5.7152553402
  H        -4.7659962447        2.0176970062       -5.5157211100
  H        -4.9754560416        1.6756369435       -7.9016028893
  H        -4.3478562640        3.2846807054       -8.2098118572
  H        -1.2640623748        1.5646657590       -6.0627820335
  H        -1.4379024019        1.3272436338       -7.9017784976
  C         0.0232881787        1.6227014132        0.1551773563
  C         0.9853136881        0.1677293227        1.8902948975
  C         1.7756893155        0.0062864581        3.0075972879
  C         2.4623563258        1.1130540962        3.6033154593
  C         1.4851104052        2.5636841216        1.8868302636
  C         2.2789887052        2.3991275307        3.0008677463
  H         1.8962335514       -0.9764363898        3.4635183638
  H         2.7883530130        3.2522210967        3.4488603832
  C        -1.3232003316       -0.0209287186      -14.1387469555
  C        -0.7639252847       -0.4960520239      -15.3337961990
  C        -0.6924208406       -1.8948559922      -15.5912935887
  C        -0.1194853686       -2.3678686667      -16.7512304092
  C         0.4205264534       -1.4772335499      -17.7343457067
  C         0.3235220405       -0.0730615060      -17.4705943911
  C        -0.2478569053        0.4025711299      -16.3100265652
  H        -1.0949574114       -2.5872378388      -14.8516397225
  H        -0.0620862694       -3.4390924115      -16.9442544201
  H         0.7186018363        0.6172469056      -18.2158222493
  H        -0.3116202229        1.4752639205      -16.1259527276
  S         3.4547170660        0.9087442823        4.9675675062
  S         1.1553165333       -2.0649504746      -19.1488824386
  C         0.8197548092        1.4515350730        1.2969622308
  H         1.3524934066        3.5511227086        1.4441504160
  H         0.4747035371       -0.6879540049        1.4477805159
  H        -2.3715791020        4.4267838966       -4.2090066057
  H        -3.4499244667        0.2581373649       -4.1787185344