     104
 i =      402, E =     -1810.5620485186
 Au         0.0000000000        0.0000000000        0.0000000000
 Au         8.7600000000        0.0000000000        0.0000000000
 Au         4.3800000000        7.5863820000        0.0000000000
 Au        13.1400000000        7.5863820000        0.0000000000
 Au         2.9200000000        0.0000000000        0.0000000000
 Au         7.3000000000        7.5863820000        0.0000000000
 Au         5.8400000000        0.0000000000        0.0000000000
 Au        10.2200000000        7.5863820000        0.0000000000
 Au         1.4600000000        2.5287940000        0.0000000000
 Au        10.2200000000        2.5287940000        0.0000000000
 Au         4.3800000000        2.5287940000        0.0000000000
 Au         7.3000000000        2.5287940000        0.0000000000
 Au         2.9200000000        5.0575880000        0.0000000000
 Au        11.6800000000        5.0575880000        0.0000000000
 Au         5.8400000000        5.0575880000        0.0000000000
 Au         8.7600000000        5.0575880000        0.0000000000
 Au         1.4600000000        0.8429310000        2.3841700000
 Au        10.2200000000        0.8429310000        2.3841700000
 Au         5.8400000000        8.4293140000        2.3841700000
 Au        14.6000000000        8.4293140000        2.3841700000
 Au         4.3800000000        0.8429310000        2.3841700000
 Au         8.7600000000        8.4293140000        2.3841700000
 Au         7.3000000000        0.8429310000        2.3841700000
 Au        11.6800000000        8.4293140000        2.3841700000
 Au         2.9200000000        3.3717260000        2.3841700000
 Au        11.6800000000        3.3717260000        2.3841700000
 Au         5.8400000000        3.3717260000        2.3841700000
 Au         8.7600000000        3.3717260000        2.3841700000
 Au         4.3800000000        5.9005200000        2.3841700000
 Au        13.1400000000        5.9005200000        2.3841700000
 Au         7.3000000000        5.9005200000        2.3841700000
 Au        10.2200000000        5.9005200000        2.3841700000
 Au         8.7600000000        1.6858630000        4.7683400000
 Au        13.1400000000        9.2722450000        4.7683400000
 Au         2.9200000000        1.6858630000        4.7683400000
 Au        11.6800000000        1.6858630000        4.7683400000
 Au         7.3000000000        9.2722450000        4.7683400000
 Au        16.0599990000        9.2722450000        4.7683400000
 Au         5.8400000000        1.6858630000        4.7683400000
 Au        10.2200000000        9.2722450000        4.7683400000
 Au        10.2200000000        4.2146570000        4.7683400000
 Au         4.3800000000        4.2146570000        4.7683400000
 Au        13.1400000000        4.2146570000        4.7683400000
 Au         7.3000000000        4.2146570000        4.7683400000
 Au        11.6800000000        6.7434510000        4.7683400000
 Au         5.8400000000        6.7434510000        4.7683400000
 Au        14.6000000000        6.7434510000        4.7683400000
 Au         8.7600000000        6.7434510000        4.7683400000
  C         4.6278986881        6.4156098911       12.8968584598
  C         4.9190638504        7.7261471019       13.3387823457
  C         4.3781571768        8.2072732218       14.5257240545
  C         3.5307612988        7.4136248737       15.3149708106
  C         3.7451962843        5.6293353913       13.6705876416
  C         3.2137487570        6.1253572375       14.8569277575
  C         3.0279003462        7.9125730478       16.6446685544
  C         3.4081947037        8.1868343038       19.1438818285
  C         4.3006374910        7.9934219923       20.3417540775
  C         5.3269467254        8.9099447859       20.6279353373
  C         6.1810759215        8.7231049449       21.7072942617
  C         6.0358646578        7.5951998838       22.5508939951
  C         4.1527300733        6.8790132264       21.1836262517
  C         4.9969937224        6.6764791054       22.2691153869
  H         5.5847738521        8.3505859502       12.7431881901
  H         4.6280949381        9.2172487467       14.8572787875
  H         6.9720714774        9.4430223745       21.9168914567
  H         4.8676792947        5.8084154463       22.9151671823
  C         5.2505739385        5.8925662036       11.7378057585
  H         3.4983153524        4.6222483073       13.3347047270
  H         2.5471910691        5.4952945963       15.4496577041
  C         6.9075706251        7.3920240286       23.6410144235
  C         3.9432597862        7.6368861268       17.8295085410
  C         5.1022967409        6.9746614584       17.7271820115
  H         3.2025330089        9.2638710482       19.0080179814
  H         2.4233682923        7.7255171014       19.3375756602
  H         2.0381773725        7.4715879916       16.8604400478
  H         2.8541672701        9.0023833557       16.5904041867
  H         5.7324411867        6.7957755016       18.5971449827
  H         5.4539843091        6.5936138905       16.7697264373
  C         7.6753225237        7.2122387722       24.5813810234
  C         8.4476787695        5.8828381718       26.5023433773
  C         9.3400578249        5.6842118302       27.5330943474
  C        10.4147130715        6.5989184056       27.7776763601
  C         9.6248989091        7.9377194738       25.8835750916
  C        10.5158472573        7.7373072245       26.9144625802
  H         9.2454878734        4.8186065181       28.1886709237
  H        11.3234656345        8.4465594773       27.0952497562
  C         5.8579571857        5.4296882650       10.7828570888
  C         6.6477060940        4.8770258693        9.7489033058
  C         6.4324735413        3.5562539577        9.2898530808
  C         7.2850741280        2.9796205898        8.3580126322
  C         8.3845827781        3.7049291791        7.8581349902
  C         8.5696424556        5.0427987047        8.2600374812
  C         7.7153488314        5.6183384255        9.1894274999
  H         5.5963549568        2.9832749741        9.6899793497
  H         7.1207261257        1.9544835503        8.0258891905
  H         9.4034862326        5.6156695390        7.8541626703
  H         7.8763699563        6.6464803322        9.5126977314
  S        11.5262860794        6.3431141713       29.0375560157
  S         9.6395074118        2.8838871672        6.9186189460
  C         8.5683715788        7.0128307711       25.6438285343
  H         9.7165105752        8.8092868783       25.2351424418
  H         7.6358185040        5.1757350761       26.3312120494
  H         5.4568879686        9.7836598678       19.9861348234
  H         3.3587838888        6.1575151118       20.9808156976
 Au         0.0000000000        0.0000000000        0.0000000000
 Au         8.7600000000        0.0000000000        0.0000000000
 Au         4.3800000000        7.5863820000        0.0000000000
 Au        13.1400000000        7.5863820000        0.0000000000
 Au         2.9200000000        0.0000000000        0.0000000000
 Au         7.3000000000        7.5863820000        0.0000000000
 Au         5.8400000000        0.0000000000        0.0000000000
 Au        10.2200000000        7.5863820000        0.0000000000
 Au         1.4600000000        2.5287940000        0.0000000000
 Au        10.2200000000        2.5287940000        0.0000000000
 Au         4.3800000000        2.5287940000        0.0000000000
 Au         7.3000000000        2.5287940000        0.0000000000
 Au         2.9200000000        5.0575880000        0.0000000000
 Au        11.6800000000        5.0575880000        0.0000000000
 Au         5.8400000000        5.0575880000        0.0000000000
 Au         8.7600000000        5.0575880000        0.0000000000
 Au         1.4600000000        0.8429310000        2.3841700000
 Au        10.2200000000        0.8429310000        2.3841700000
 Au         5.8400000000        8.4293140000        2.3841700000
 Au        14.6000000000        8.4293140000        2.3841700000
 Au         4.3800000000        0.8429310000        2.3841700000
 Au         8.7600000000        8.4293140000        2.3841700000
 Au         7.3000000000        0.8429310000        2.3841700000
 Au        11.6800000000        8.4293140000        2.3841700000
 Au         2.9200000000        3.3717260000        2.3841700000
 Au        11.6800000000        3.3717260000        2.3841700000
 Au         5.8400000000        3.3717260000        2.3841700000
 Au         8.7600000000        3.3717260000        2.3841700000
 Au         4.3800000000        5.9005200000        2.3841700000
 Au        13.1400000000        5.9005200000        2.3841700000
 Au         7.3000000000        5.9005200000        2.3841700000
 Au        10.2200000000        5.9005200000        2.3841700000
 Au         8.7600000000        1.6858630000        4.7683400000
 Au        13.1400000000        9.2722450000        4.7683400000
 Au         2.9200000000        1.6858630000        4.7683400000
 Au        11.6800000000        1.6858630000        4.7683400000
 Au         7.3000000000        9.2722450000        4.7683400000
 Au        16.0599990000        9.2722450000        4.7683400000
 Au         5.8400000000        1.6858630000        4.7683400000
 Au        10.2200000000        9.2722450000        4.7683400000
 Au        10.2200000000        4.2146570000        4.7683400000
 Au         4.3800000000        4.2146570000        4.7683400000
 Au        13.1400000000        4.2146570000        4.7683400000
 Au         7.3000000000        4.2146570000        4.7683400000
 Au        11.6800000000        6.7434510000        4.7683400000
 Au         5.8400000000        6.7434510000        4.7683400000
 Au        14.6000000000        6.7434510000        4.7683400000
 Au         8.7600000000        6.7434510000        4.7683400000