    766
 i =       72, E =     -6434.2718402668
Au    0.000000    0.000000    0.000000    L3
Au    8.760000    0.000000    0.000000    L3
Au    4.380000    7.586382    0.000000    L3
Au    13.140000    7.586382    0.000000    L3
Au    2.920000    0.000000    0.000000    L3
Au    11.680000    0.000000    0.000000    L3
Au    7.300000    7.586382    0.000000    L3
Au    16.059999    7.586382    0.000000    L3
Au    5.840000    0.000000    0.000000    L3
Au    14.600000    0.000000    0.000000    L3
Au    10.220000    7.586382    0.000000    L3
Au    18.980000    7.586382    0.000000    L3
Au    1.460000    2.528794    0.000000    L3
Au    10.220000    2.528794    0.000000    L3
Au    5.840000    10.115176    0.000000    L3
Au    14.600000    10.115176    0.000000    L3
Au    4.380000    2.528794    0.000000    L3
Au    13.140000    2.528794    0.000000    L3
Au    8.760000    10.115176    0.000000    L3
Au    17.520000    10.115176    0.000000    L3
Au    7.300000    2.528794    0.000000    L3
Au    16.059999    2.528794    0.000000    L3
Au    11.680000    10.115176    0.000000    L3
Au    20.440001    10.115176    0.000000    L3
Au    2.920000    5.057588    0.000000    L3
Au    11.680000    5.057588    0.000000    L3
Au    5.840000    5.057588    0.000000    L3
Au    14.600000    5.057588    0.000000    L3
Au    8.760000    5.057588    0.000000    L3
Au    17.520000    5.057588    0.000000    L3
Au    1.460000    0.842931    2.384170    L3
Au    10.220000    0.842931    2.384170    L3
Au    5.840000    8.429314    2.384170    L3
Au    14.600000    8.429314    2.384170    L3
Au    4.380000    0.842931    2.384170    L3
Au    13.140000    0.842931    2.384170    L3
Au    8.760000    8.429314    2.384170    L3
Au    17.520000    8.429314    2.384170    L3
Au    7.300000    0.842931    2.384170    L3
Au    16.059999    0.842931    2.384170    L3
Au    11.680000    8.429314    2.384170    L3
Au    20.440001    8.429314    2.384170    L3
Au    2.920000    3.371726    2.384170    L3
Au    11.680000    3.371726    2.384170    L3
Au    7.300000    10.958108    2.384170    L3
Au    16.059999    10.958108    2.384170    L3
Au    5.840000    3.371726    2.384170    L3
Au    14.600000    3.371726    2.384170    L3
Au    10.220000    10.958108    2.384170    L3
Au    18.980000    10.958108    2.384170    L3
Au    8.760000    3.371726    2.384170    L3
Au    17.520000    3.371726    2.384170    L3
Au    13.140000    10.958108    2.384170    L3
Au    21.900000    10.958108    2.384170    L3
Au    4.380000    5.900520    2.384170    L3
Au    13.140000    5.900520    2.384170    L3
Au    7.300000    5.900520    2.384170    L3
Au    16.059999    5.900520    2.384170    L3
Au    10.220000    5.900520    2.384170    L3
Au    18.980000    5.900520    2.384170    L3
Au    0.000000    1.685863    4.768340    L3
Au    8.760000    1.685863    4.768340    L3
Au    4.380000    9.272245    4.768340    L3
Au    13.140000    9.272245    4.768340    L3
Au    2.920000    1.685863    4.768340    L3
Au    11.680000    1.685863    4.768340    L3
Au    7.300000    9.272245    4.768340    L3
Au    16.059999    9.272245    4.768340    L3
Au    5.840000    1.685863    4.768340    L3
Au    14.600000    1.685863    4.768340    L3
Au    10.220000    9.272245    4.768340    L3
Au    18.980000    9.272245    4.768340    L3
Au    1.460000    4.214657    4.768340    L3
Au    10.220000    4.214657    4.768340    L3
Au    5.840000    11.801040    4.768340    L3
Au    14.600000    11.801040    4.768340    L3
Au    4.380000    4.214657    4.768340    L3
Au    13.140000    4.214657    4.768340    L3
Au    8.760000    11.801040    4.768340    L3
Au    17.520000    11.801040    4.768340    L3
Au    7.300000    4.214657    4.768340    L3
Au    16.059999    4.214657    4.768340    L3
Au    11.680000    11.801040    4.768340    L3
Au    20.440001    11.801040    4.768340    L3
Au    2.920000    6.743451    4.768340    L3
Au    11.680000    6.743451    4.768340    L3
Au    5.840000    6.743451    4.768340    L3
Au    14.600000    6.743451    4.768340    L3
Au    8.760000    6.743451    4.768340    L3
Au    17.520000    6.743451    4.768340    L3
Au    0.000000    0.000000    7.152510    L2
Au    8.760000    0.000000    7.152510    L2
Au    4.380000    7.586382    7.152510    L2
Au    13.140000    7.586382    7.152510    L2
Au    2.920000    0.000000    7.152510    L2
Au    11.680000    0.000000    7.152510    L2
Au    7.300000    7.586382    7.152510    L2
Au    16.059999    7.586382    7.152510    L2
Au    5.840000    0.000000    7.152510    L2
Au    14.600000    0.000000    7.152510    L2
Au    10.220000    7.586382    7.152510    L2
Au    18.980000    7.586382    7.152510    L2
Au    1.460000    2.528794    7.152510    L2
Au    10.220000    2.528794    7.152510    L2
Au    5.840000    10.115176    7.152510    L2
Au    14.600000    10.115176    7.152510    L2
Au    4.380000    2.528794    7.152510    L2
Au    13.140000    2.528794    7.152510    L2
Au    8.760000    10.115176    7.152510    L2
Au    17.520000    10.115176    7.152510    L2
Au    7.300000    2.528794    7.152510    L2
Au    16.059999    2.528794    7.152510    L2
Au    11.680000    10.115176    7.152510    L2
Au    20.440001    10.115176    7.152510    L2
Au    2.920000    5.057588    7.152510    L2
Au    11.680000    5.057588    7.152510    L2
Au    5.840000    5.057588    7.152510    L2
Au    14.600000    5.057588    7.152510    L2
Au    8.760000    5.057588    7.152510    L2
Au    17.520000    5.057588    7.152510    L2
Au    1.460000    0.842931    9.536680    L2
Au    10.220000    0.842931    9.536680    L2
Au    5.840000    8.429314    9.536680    L2
Au    14.600000    8.429314    9.536680    L2
Au    4.380000    0.842931    9.536680    L2
Au    13.140000    0.842931    9.536680    L2
Au    8.760000    8.429314    9.536680    L2
Au    17.520000    8.429314    9.536680    L2
Au    7.300000    0.842931    9.536680    L2
Au    16.059999    0.842931    9.536680    L2
Au    11.680000    8.429314    9.536680    L2
Au    20.440001    8.429314    9.536680    L2
Au    2.920000    3.371726    9.536680    L2
Au    11.680000    3.371726    9.536680    L2
Au    7.300000    10.958108    9.536680    L2
Au    16.059999    10.958108    9.536680    L2
Au    5.840000    3.371726    9.536680    L2
Au    14.600000    3.371726    9.536680    L2
Au    10.220000    10.958108    9.536680    L2
Au    18.980000    10.958108    9.536680    L2
Au    8.760000    3.371726    9.536680    L2
Au    17.520000    3.371726    9.536680    L2
Au    13.140000    10.958108    9.536680    L2
Au    21.900000    10.958108    9.536680    L2
Au    4.380000    5.900520    9.536680    L2
Au    13.140000    5.900520    9.536680    L2
Au    7.300000    5.900520    9.536680    L2
Au    16.059999    5.900520    9.536680    L2
Au    10.220000    5.900520    9.536680    L2
Au    18.980000    5.900520    9.536680    L2
Au    0.000000    1.685863    11.920850    L2
Au    8.760000    1.685863    11.920850    L2
Au    4.380000    9.272245    11.920850    L2
Au    13.140000    9.272245    11.920850    L2
Au    2.920000    1.685863    11.920850    L2
Au    11.680000    1.685863    11.920850    L2
Au    7.300000    9.272245    11.920850    L2
Au    16.059999    9.272245    11.920850    L2
Au    5.840000    1.685863    11.920850    L2
Au    14.600000    1.685863    11.920850    L2
Au    10.220000    9.272245    11.920850    L2
Au    18.980000    9.272245    11.920850    L2
Au    1.460000    4.214657    11.920850    L2
Au    10.220000    4.214657    11.920850    L2
Au    5.840000    11.801040    11.920850    L2
Au    14.600000    11.801040    11.920850    L2
Au    4.380000    4.214657    11.920850    L2
Au    13.140000    4.214657    11.920850    L2
Au    8.760000    11.801040    11.920850    L2
Au    17.520000    11.801040    11.920850    L2
Au    7.300000    4.214657    11.920850    L2
Au    16.059999    4.214657    11.920850    L2
Au    11.680000    11.801040    11.920850    L2
Au    20.440001    11.801040    11.920850    L2
Au    2.920000    6.743451    11.920850    L2
Au    11.680000    6.743451    11.920850    L2
Au    5.840000    6.743451    11.920850    L2
Au    14.600000    6.743451    11.920850    L2
Au    8.760000    6.743451    11.920850    L2
Au    17.520000    6.743451    11.920850    L2
Au    0.000000    0.000000    14.305019    L1
Au    8.760000    0.000000    14.305019    L1
Au    4.380000    7.586382    14.305019    L1
Au    13.140000    7.586382    14.305019    L1
Au    2.920000    0.000000    14.305019    L1
Au    11.680000    0.000000    14.305019    L1
Au    7.300000    7.586382    14.305019    L1
Au    16.059999    7.586382    14.305019    L1
Au    5.840000    0.000000    14.305019    L1
Au    14.600000    0.000000    14.305019    L1
Au    10.220000    7.586382    14.305019    L1
Au    18.980000    7.586382    14.305019    L1
Au    1.460000    2.528794    14.305019    L1
Au    10.220000    2.528794    14.305019    L1
Au    5.840000    10.115176    14.305019    L1
Au    14.600000    10.115176    14.305019    L1
Au    4.380000    2.528794    14.305019    L1
Au    13.140000    2.528794    14.305019    L1
Au    8.760000    10.115176    14.305019    L1
Au    17.520000    10.115176    14.305019    L1
Au    7.300000    2.528794    14.305019    L1
Au    16.059999    2.528794    14.305019    L1
Au    11.680000    10.115176    14.305019    L1
Au    20.440001    10.115176    14.305019    L1
Au    2.920000    5.057588    14.305019    L1
Au    11.680000    5.057588    14.305019    L1
Au    5.840000    5.057588    14.305019    L1
Au    14.600000    5.057588    14.305019    L1
Au    8.760000    5.057588    14.305019    L1
Au    17.520000    5.057588    14.305019    L1
Au    1.460000    0.842931    16.689190    L1
Au    10.220000    0.842931    16.689190    L1
Au    5.840000    8.429314    16.689190    L1
Au    14.600000    8.429314    16.689190    L1
Au    4.380000    0.842931    16.689190    L1
Au    13.140000    0.842931    16.689190    L1
Au    8.760000    8.429314    16.689190    L1
Au    17.520000    8.429314    16.689190    L1
Au    7.300000    0.842931    16.689190    L1
Au    16.059999    0.842931    16.689190    L1
Au    11.680000    8.429314    16.689190    L1
Au    20.440001    8.429314    16.689190    L1
Au    2.920000    3.371726    16.689190    L1
Au    11.680000    3.371726    16.689190    L1
Au    7.300000    10.958108    16.689190    L1
Au    16.059999    10.958108    16.689190    L1
Au    5.840000    3.371726    16.689190    L1
Au    14.600000    3.371726    16.689190    L1
Au    10.220000    10.958108    16.689190    L1
Au    18.980000    10.958108    16.689190    L1
Au    8.760000    3.371726    16.689190    L1
Au    17.520000    3.371726    16.689190    L1
Au    13.140000    10.958108    16.689190    L1
Au    21.900000    10.958108    16.689190    L1
Au    4.380000    5.900520    16.689190    L1
Au    13.140000    5.900520    16.689190    L1
Au    7.300000    5.900520    16.689190    L1
Au    16.059999    5.900520    16.689190    L1
Au    10.220000    5.900520    16.689190    L1
Au    18.980000    5.900520    16.689190    L1
Au    0.000000    1.685863    19.073360    L1
Au    8.760000    1.685863    19.073360    L1
Au    4.380000    9.272245    19.073360    L1
Au    13.140000    9.272245    19.073360    L1
Au    2.920000    1.685863    19.073360    L1
Au    11.680000    1.685863    19.073360    L1
Au    7.300000    9.272245    19.073360    L1
Au    16.059999    9.272245    19.073360    L1
Au    5.840000    1.685863    19.073360    L1
Au    14.600000    1.685863    19.073360    L1
Au    10.220000    9.272245    19.073360    L1
Au    18.980000    9.272245    19.073360    L1
Au    1.460000    4.214657    19.073360    L1
Au    10.220000    4.214657    19.073360    L1
Au    5.840000    11.801040    19.073360    L1
Au    14.600000    11.801040    19.073360    L1
Au    4.380000    4.214657    19.073360    L1
Au    13.140000    4.214657    19.073360    L1
Au    8.760000    11.801040    19.073360    L1
Au    17.520000    11.801040    19.073360    L1
Au    7.300000    4.214657    19.073360    L1
Au    16.059999    4.214657    19.073360    L1
Au    11.680000    11.801040    19.073360    L1
Au    20.440001    11.801040    19.073360    L1
Au    2.920000    6.743451    19.073360    L1
Au    11.680000    6.743451    19.073360    L1
Au    5.840000    6.743451    19.073360    L1
Au    14.600000    6.743451    19.073360    L1
Au    8.760000    6.743451    19.073360    L1
Au    17.520000    6.743451    19.073360    L1
Au    0.0000000000    0.0000000000    21.457530064    L0
Au    8.7600000000    0.0000000000    21.457530064    L0
Au    4.3800000000    7.5863820000    21.457530064    L0
Au    13.1400000000    7.5863820000    21.457530064    L0
Au    2.9200000000    0.0000000000    21.457530064    L0
Au    11.6800000000    0.0000000000    21.457530064    L0
Au    7.3000000000    7.5863820000    21.457530064    L0
Au    16.0599990000    7.5863820000    21.457530064    L0
Au    5.8400000000    0.0000000000    21.457530064    L0
Au    14.6000000000    0.0000000000    21.457530064    L0
Au    10.2200000000    7.5863820000    21.457530064    L0
Au    18.9800000000    7.5863820000    21.457530064    L0
Au    1.4600000000    2.5287940000    21.457530064    L0
Au    10.2200000000    2.5287940000    21.457530064    L0
Au    5.8400000000    10.1151760000    21.457530064    L0
Au    14.6000000000    10.1151760000    21.457530064    L0
Au    4.3800000000    2.5287940000    21.457530064    L0
Au    13.1400000000    2.5287940000    21.457530064    L0
Au    8.7600000000    10.1151760000    21.457530064    L0
Au    17.5200000000    10.1151760000    21.457530064    L0
Au    7.3000000000    2.5287940000    21.457530064    L0
Au    16.0599990000    2.5287940000    21.457530064    L0
Au    11.6800000000    10.1151760000    21.457530064    L0
Au    20.4400010000    10.1151760000    21.457530064    L0
Au    2.9200000000    5.0575880000    21.457530064    L0
Au    11.6800000000    5.0575880000    21.457530064    L0
Au    5.8400000000    5.0575880000    21.457530064    L0
Au    14.6000000000    5.0575880000    21.457530064    L0
Au    8.7600000000    5.0575880000    21.457530064    L0
Au    17.5200000000    5.0575880000    21.457530064    L0
Au    1.4600000000    0.8429310000    23.841700064    L0
Au    10.2200000000    0.8429310000    23.841700064    L0
Au    5.8400000000    8.4293140000    23.841700064    L0
Au    14.6000000000    8.4293140000    23.841700064    L0
Au    4.3800000000    0.8429310000    23.841700064    L0
Au    13.1400000000    0.8429310000    23.841700064    L0
Au    8.7600000000    8.4293140000    23.841700064    L0
Au    17.5200000000    8.4293140000    23.841700064    L0
Au    7.3000000000    0.8429310000    23.841700064    L0
Au    16.0599990000    0.8429310000    23.841700064    L0
Au    11.6800000000    8.4293140000    23.841700064    L0
Au    20.4400010000    8.4293140000    23.841700064    L0
Au    2.9200000000    3.3717260000    23.841700064    L0
Au    11.6800000000    3.3717260000    23.841700064    L0
Au    7.3000000000    10.9581080000    23.841700064    L0
Au    16.0599990000    10.9581080000    23.841700064    L0
Au    5.8400000000    3.3717260000    23.841700064    L0
Au    14.6000000000    3.3717260000    23.841700064    L0
Au    10.2200000000    10.9581080000    23.841700064    L0
Au    18.9800000000    10.9581080000    23.841700064    L0
Au    8.7600000000    3.3717260000    23.841700064    L0
Au    17.5200000000    3.3717260000    23.841700064    L0
Au    13.1400000000    10.9581080000    23.841700064    L0
Au    21.9000000000    10.9581080000    23.841700064    L0
Au    4.3800000000    5.9005200000    23.841700064    L0
Au    13.1400000000    5.9005200000    23.841700064    L0
Au    7.3000000000    5.9005200000    23.841700064    L0
Au    16.0599990000    5.9005200000    23.841700064    L0
Au    10.2200000000    5.9005200000    23.841700064    L0
Au    18.9800000000    5.9005200000    23.841700064    L0
Au    0.0000000000    1.6858630000    26.225870064    L0
Au    8.7600000000    1.6858630000    26.225870064    L0
Au    4.3800000000    9.2722450000    26.225870064    L0
Au    13.1400000000    9.2722450000    26.225870064    L0
Au    2.9200000000    1.6858630000    26.225870064    L0
Au    11.6800000000    1.6858630000    26.225870064    L0
Au    7.3000000000    9.2722450000    26.225870064    L0
Au    16.0599990000    9.2722450000    26.225870064    L0
Au    5.8400000000    1.6858630000    26.225870064    L0
Au    14.6000000000    1.6858630000    26.225870064    L0
Au    10.2200000000    9.2722450000    26.225870064    L0
Au    18.9800000000    9.2722450000    26.225870064    L0
Au    1.4600000000    4.2146570000    26.225870064    L0
Au    10.2200000000    4.2146570000    26.225870064    L0
Au    5.8400000000    11.8010400000    26.225870064    L0
Au    14.6000000000    11.8010400000    26.225870064    L0
Au    4.3800000000    4.2146570000    26.225870064    L0
Au    13.1400000000    4.2146570000    26.225870064    L0
Au    8.7600000000    11.8010400000    26.225870064    L0
Au    17.5200000000    11.8010400000    26.225870064    L0
Au    7.3000000000    4.2146570000    26.225870064    L0
Au    16.0599990000    4.2146570000    26.225870064    L0
Au    11.6800000000    11.8010400000    26.225870064    L0
Au    20.4400010000    11.8010400000    26.225870064    L0
Au    2.9200000000    6.7434510000    26.225870064    L0
Au    11.6800000000    6.7434510000    26.225870064    L0
Au    5.8400000000    6.7434510000    26.225870064    L0
Au    14.6000000000    6.7434510000    26.225870064    L0
Au    8.7600000000    6.7434510000    26.225870064    L0
Au    17.5200000000    6.7434510000    26.225870064    L0
C    7.3874082948    8.8110930250    40.9851029492    S
C    8.5375671454    8.0354853073    40.7536310429    S
C    9.1642222398    8.0720989369    39.510992741799996    S
C    8.6733457796    8.8743249131    38.4591827139    S
C    6.9346086730    9.6819597076    39.9735046877    S
C    7.5665482277    9.7033639143    38.7356489062    S
C    9.2512689210    8.8012660516    37.0985612217    S
C    10.6233227437    8.5749980206    36.8774635034    S
C    11.1344775004    8.4406766933    35.5876071104    S
C    10.3015908567    8.5262066288    34.4606396083    S
C    8.4232185986    8.9027102395    35.9639283696    S
C    8.9362037858    8.7654846290    34.6748203555    S
C    10.8522336913    8.2247801130    33.0626654275    S
C    10.0585876807    8.8198247984    31.9025360153    S
C    9.6901739302    8.0053534488    30.8185121669    S
C    9.0241237003    8.5202565590    29.706704678199998    S
C    8.7169378374    9.8882301371    29.645519702199998    S
C    9.7481892968    10.1899868505    31.8263769091    S
C    9.0976110292    10.7226076353    30.7165299558    S
N    12.2972454751    8.5075233056    32.9753345784    S
H    10.7802525050    7.1266853929    32.9512289652    S
C    13.0350710190    7.8471276709    31.8829811877    S
C    14.3162157355    8.7170864777    31.740246628    S
N    14.2216074443    9.7802799832    32.767871000599996    S
C    12.7890134832    9.9013172841    32.9990208817    S
H    8.9055416169    7.3686396043    41.5344339877    S
H    10.0188414311    7.4178463899    39.3344441522    S
S    6.3149319964    8.5522549881    42.3688665275    S
H    6.0670561898    10.3166266372    40.1554397703    S
H    7.1938665096    10.3786591381    37.9646240911    S
H    7.3497084109    9.0466306684    36.0929927266    S
H    11.3041060265    8.5155374890    37.728130561200004    S
H    12.1981114096    8.2528538715    35.4373984559    S
H    8.2557188105    8.8234408037    33.8245173961    S
H    9.9981379517    10.8515267719    32.656968674    S
H    9.9088482714    6.9357902496    30.8527060202    S
H    8.7191221357    7.8574971420    28.8952059965    S
S    7.6967223572    10.6160304549    28.3895542688    S
H    8.8590575085    11.7859097563    30.6819941892    S
H    15.2409027468    8.1422411218    31.873015295000002    S
H    14.3527550955    9.1813239210    30.7436104133    S
H    12.4715290378    7.8402629682    30.931709537    S
H    13.2504338062    6.8019481343    32.1565121116    S
H    12.3531861720    10.5144473086    32.1858933544    S
H    12.5682413276    10.3828829758    33.9618182427    S
H    14.6474079637    9.4291182104    33.631826972    S
Au    0.0000000000    0.0000000000    44.5253323271    R0
Au    8.7600000000    0.0000000000    44.5253323271    R0
Au    4.3800000000    7.5863820000    44.5253323271    R0
Au    13.1400000000    7.5863820000    44.5253323271    R0
Au    2.9200000000    0.0000000000    44.5253323271    R0
Au    11.6800000000    0.0000000000    44.5253323271    R0
Au    7.3000000000    7.5863820000    44.5253323271    R0
Au    16.0599990000    7.5863820000    44.5253323271    R0
Au    5.8400000000    0.0000000000    44.5253323271    R0
Au    14.6000000000    0.0000000000    44.5253323271    R0
Au    10.2200000000    7.5863820000    44.5253323271    R0
Au    18.9800000000    7.5863820000    44.5253323271    R0
Au    1.4600000000    2.5287940000    44.5253323271    R0
Au    10.2200000000    2.5287940000    44.5253323271    R0
Au    5.8400000000    10.1151760000    44.5253323271    R0
Au    14.6000000000    10.1151760000    44.5253323271    R0
Au    4.3800000000    2.5287940000    44.5253323271    R0
Au    13.1400000000    2.5287940000    44.5253323271    R0
Au    8.7600000000    10.1151760000    44.5253323271    R0
Au    17.5200000000    10.1151760000    44.5253323271    R0
Au    7.3000000000    2.5287940000    44.5253323271    R0
Au    16.0599990000    2.5287940000    44.5253323271    R0
Au    11.6800000000    10.1151760000    44.5253323271    R0
Au    20.4400010000    10.1151760000    44.5253323271    R0
Au    2.9200000000    5.0575880000    44.5253323271    R0
Au    11.6800000000    5.0575880000    44.5253323271    R0
Au    5.8400000000    5.0575880000    44.5253323271    R0
Au    14.6000000000    5.0575880000    44.5253323271    R0
Au    8.7600000000    5.0575880000    44.5253323271    R0
Au    17.5200000000    5.0575880000    44.5253323271    R0
Au    1.4600000000    0.8429310000    46.9095023271    R0
Au    10.2200000000    0.8429310000    46.9095023271    R0
Au    5.8400000000    8.4293140000    46.9095023271    R0
Au    14.6000000000    8.4293140000    46.9095023271    R0
Au    4.3800000000    0.8429310000    46.9095023271    R0
Au    13.1400000000    0.8429310000    46.9095023271    R0
Au    8.7600000000    8.4293140000    46.9095023271    R0
Au    17.5200000000    8.4293140000    46.9095023271    R0
Au    7.3000000000    0.8429310000    46.9095023271    R0
Au    16.0599990000    0.8429310000    46.9095023271    R0
Au    11.6800000000    8.4293140000    46.9095023271    R0
Au    20.4400010000    8.4293140000    46.9095023271    R0
Au    2.9200000000    3.3717260000    46.9095023271    R0
Au    11.6800000000    3.3717260000    46.9095023271    R0
Au    7.3000000000    10.9581080000    46.9095023271    R0
Au    16.0599990000    10.9581080000    46.9095023271    R0
Au    5.8400000000    3.3717260000    46.9095023271    R0
Au    14.6000000000    3.3717260000    46.9095023271    R0
Au    10.2200000000    10.9581080000    46.9095023271    R0
Au    18.9800000000    10.9581080000    46.9095023271    R0
Au    8.7600000000    3.3717260000    46.9095023271    R0
Au    17.5200000000    3.3717260000    46.9095023271    R0
Au    13.1400000000    10.9581080000    46.9095023271    R0
Au    21.9000000000    10.9581080000    46.9095023271    R0
Au    4.3800000000    5.9005200000    46.9095023271    R0
Au    13.1400000000    5.9005200000    46.9095023271    R0
Au    7.3000000000    5.9005200000    46.9095023271    R0
Au    16.0599990000    5.9005200000    46.9095023271    R0
Au    10.2200000000    5.9005200000    46.9095023271    R0
Au    18.9800000000    5.9005200000    46.9095023271    R0
Au    0.0000000000    1.6858630000    49.2936723271    R0
Au    8.7600000000    1.6858630000    49.2936723271    R0
Au    4.3800000000    9.2722450000    49.2936723271    R0
Au    13.1400000000    9.2722450000    49.2936723271    R0
Au    2.9200000000    1.6858630000    49.2936723271    R0
Au    11.6800000000    1.6858630000    49.2936723271    R0
Au    7.3000000000    9.2722450000    49.2936723271    R0
Au    16.0599990000    9.2722450000    49.2936723271    R0
Au    5.8400000000    1.6858630000    49.2936723271    R0
Au    14.6000000000    1.6858630000    49.2936723271    R0
Au    10.2200000000    9.2722450000    49.2936723271    R0
Au    18.9800000000    9.2722450000    49.2936723271    R0
Au    1.4600000000    4.2146570000    49.2936723271    R0
Au    10.2200000000    4.2146570000    49.2936723271    R0
Au    5.8400000000    11.8010400000    49.2936723271    R0
Au    14.6000000000    11.8010400000    49.2936723271    R0
Au    4.3800000000    4.2146570000    49.2936723271    R0
Au    13.1400000000    4.2146570000    49.2936723271    R0
Au    8.7600000000    11.8010400000    49.2936723271    R0
Au    17.5200000000    11.8010400000    49.2936723271    R0
Au    7.3000000000    4.2146570000    49.2936723271    R0
Au    16.0599990000    4.2146570000    49.2936723271    R0
Au    11.6800000000    11.8010400000    49.2936723271    R0
Au    20.4400010000    11.8010400000    49.2936723271    R0
Au    2.9200000000    6.7434510000    49.2936723271    R0
Au    11.6800000000    6.7434510000    49.2936723271    R0
Au    5.8400000000    6.7434510000    49.2936723271    R0
Au    14.6000000000    6.7434510000    49.2936723271    R0
Au    8.7600000000    6.7434510000    49.2936723271    R0
Au    17.5200000000    6.7434510000    49.2936723271    R0
Au    0.000000    0.000000    51.6778423991    R1
Au    8.760000    0.000000    51.6778423991    R1
Au    4.380000    7.586382    51.6778423991    R1
Au    13.140000    7.586382    51.6778423991    R1
Au    2.920000    0.000000    51.6778423991    R1
Au    11.680000    0.000000    51.6778423991    R1
Au    7.300000    7.586382    51.6778423991    R1
Au    16.059999    7.586382    51.6778423991    R1
Au    5.840000    0.000000    51.6778423991    R1
Au    14.600000    0.000000    51.6778423991    R1
Au    10.220000    7.586382    51.6778423991    R1
Au    18.980000    7.586382    51.6778423991    R1
Au    1.460000    2.528794    51.6778423991    R1
Au    10.220000    2.528794    51.6778423991    R1
Au    5.840000    10.115176    51.6778423991    R1
Au    14.600000    10.115176    51.6778423991    R1
Au    4.380000    2.528794    51.6778423991    R1
Au    13.140000    2.528794    51.6778423991    R1
Au    8.760000    10.115176    51.6778423991    R1
Au    17.520000    10.115176    51.6778423991    R1
Au    7.300000    2.528794    51.6778423991    R1
Au    16.059999    2.528794    51.6778423991    R1
Au    11.680000    10.115176    51.6778423991    R1
Au    20.440001    10.115176    51.6778423991    R1
Au    2.920000    5.057588    51.6778423991    R1
Au    11.680000    5.057588    51.6778423991    R1
Au    5.840000    5.057588    51.6778423991    R1
Au    14.600000    5.057588    51.6778423991    R1
Au    8.760000    5.057588    51.6778423991    R1
Au    17.520000    5.057588    51.6778423991    R1
Au    1.460000    0.842931    54.062012399100006    R1
Au    10.220000    0.842931    54.062012399100006    R1
Au    5.840000    8.429314    54.062012399100006    R1
Au    14.600000    8.429314    54.062012399100006    R1
Au    4.380000    0.842931    54.062012399100006    R1
Au    13.140000    0.842931    54.062012399100006    R1
Au    8.760000    8.429314    54.062012399100006    R1
Au    17.520000    8.429314    54.062012399100006    R1
Au    7.300000    0.842931    54.062012399100006    R1
Au    16.059999    0.842931    54.062012399100006    R1
Au    11.680000    8.429314    54.062012399100006    R1
Au    20.440001    8.429314    54.062012399100006    R1
Au    2.920000    3.371726    54.062012399100006    R1
Au    11.680000    3.371726    54.062012399100006    R1
Au    7.300000    10.958108    54.062012399100006    R1
Au    16.059999    10.958108    54.062012399100006    R1
Au    5.840000    3.371726    54.062012399100006    R1
Au    14.600000    3.371726    54.062012399100006    R1
Au    10.220000    10.958108    54.062012399100006    R1
Au    18.980000    10.958108    54.062012399100006    R1
Au    8.760000    3.371726    54.062012399100006    R1
Au    17.520000    3.371726    54.062012399100006    R1
Au    13.140000    10.958108    54.062012399100006    R1
Au    21.900000    10.958108    54.062012399100006    R1
Au    4.380000    5.900520    54.062012399100006    R1
Au    13.140000    5.900520    54.062012399100006    R1
Au    7.300000    5.900520    54.062012399100006    R1
Au    16.059999    5.900520    54.062012399100006    R1
Au    10.220000    5.900520    54.062012399100006    R1
Au    18.980000    5.900520    54.062012399100006    R1
Au    0.000000    1.685863    56.4461823991    R1
Au    8.760000    1.685863    56.4461823991    R1
Au    4.380000    9.272245    56.4461823991    R1
Au    13.140000    9.272245    56.4461823991    R1
Au    2.920000    1.685863    56.4461823991    R1
Au    11.680000    1.685863    56.4461823991    R1
Au    7.300000    9.272245    56.4461823991    R1
Au    16.059999    9.272245    56.4461823991    R1
Au    5.840000    1.685863    56.4461823991    R1
Au    14.600000    1.685863    56.4461823991    R1
Au    10.220000    9.272245    56.4461823991    R1
Au    18.980000    9.272245    56.4461823991    R1
Au    1.460000    4.214657    56.4461823991    R1
Au    10.220000    4.214657    56.4461823991    R1
Au    5.840000    11.801040    56.4461823991    R1
Au    14.600000    11.801040    56.4461823991    R1
Au    4.380000    4.214657    56.4461823991    R1
Au    13.140000    4.214657    56.4461823991    R1
Au    8.760000    11.801040    56.4461823991    R1
Au    17.520000    11.801040    56.4461823991    R1
Au    7.300000    4.214657    56.4461823991    R1
Au    16.059999    4.214657    56.4461823991    R1
Au    11.680000    11.801040    56.4461823991    R1
Au    20.440001    11.801040    56.4461823991    R1
Au    2.920000    6.743451    56.4461823991    R1
Au    11.680000    6.743451    56.4461823991    R1
Au    5.840000    6.743451    56.4461823991    R1
Au    14.600000    6.743451    56.4461823991    R1
Au    8.760000    6.743451    56.4461823991    R1
Au    17.520000    6.743451    56.4461823991    R1
Au    0.000000    0.000000    58.8303513991    R2
Au    8.760000    0.000000    58.8303513991    R2
Au    4.380000    7.586382    58.8303513991    R2
Au    13.140000    7.586382    58.8303513991    R2
Au    2.920000    0.000000    58.8303513991    R2
Au    11.680000    0.000000    58.8303513991    R2
Au    7.300000    7.586382    58.8303513991    R2
Au    16.059999    7.586382    58.8303513991    R2
Au    5.840000    0.000000    58.8303513991    R2
Au    14.600000    0.000000    58.8303513991    R2
Au    10.220000    7.586382    58.8303513991    R2
Au    18.980000    7.586382    58.8303513991    R2
Au    1.460000    2.528794    58.8303513991    R2
Au    10.220000    2.528794    58.8303513991    R2
Au    5.840000    10.115176    58.8303513991    R2
Au    14.600000    10.115176    58.8303513991    R2
Au    4.380000    2.528794    58.8303513991    R2
Au    13.140000    2.528794    58.8303513991    R2
Au    8.760000    10.115176    58.8303513991    R2
Au    17.520000    10.115176    58.8303513991    R2
Au    7.300000    2.528794    58.8303513991    R2
Au    16.059999    2.528794    58.8303513991    R2
Au    11.680000    10.115176    58.8303513991    R2
Au    20.440001    10.115176    58.8303513991    R2
Au    2.920000    5.057588    58.8303513991    R2
Au    11.680000    5.057588    58.8303513991    R2
Au    5.840000    5.057588    58.8303513991    R2
Au    14.600000    5.057588    58.8303513991    R2
Au    8.760000    5.057588    58.8303513991    R2
Au    17.520000    5.057588    58.8303513991    R2
Au    1.460000    0.842931    61.2145223991    R2
Au    10.220000    0.842931    61.2145223991    R2
Au    5.840000    8.429314    61.2145223991    R2
Au    14.600000    8.429314    61.2145223991    R2
Au    4.380000    0.842931    61.2145223991    R2
Au    13.140000    0.842931    61.2145223991    R2
Au    8.760000    8.429314    61.2145223991    R2
Au    17.520000    8.429314    61.2145223991    R2
Au    7.300000    0.842931    61.2145223991    R2
Au    16.059999    0.842931    61.2145223991    R2
Au    11.680000    8.429314    61.2145223991    R2
Au    20.440001    8.429314    61.2145223991    R2
Au    2.920000    3.371726    61.2145223991    R2
Au    11.680000    3.371726    61.2145223991    R2
Au    7.300000    10.958108    61.2145223991    R2
Au    16.059999    10.958108    61.2145223991    R2
Au    5.840000    3.371726    61.2145223991    R2
Au    14.600000    3.371726    61.2145223991    R2
Au    10.220000    10.958108    61.2145223991    R2
Au    18.980000    10.958108    61.2145223991    R2
Au    8.760000    3.371726    61.2145223991    R2
Au    17.520000    3.371726    61.2145223991    R2
Au    13.140000    10.958108    61.2145223991    R2
Au    21.900000    10.958108    61.2145223991    R2
Au    4.380000    5.900520    61.2145223991    R2
Au    13.140000    5.900520    61.2145223991    R2
Au    7.300000    5.900520    61.2145223991    R2
Au    16.059999    5.900520    61.2145223991    R2
Au    10.220000    5.900520    61.2145223991    R2
Au    18.980000    5.900520    61.2145223991    R2
Au    0.000000    1.685863    63.59869239910001    R2
Au    8.760000    1.685863    63.59869239910001    R2
Au    4.380000    9.272245    63.59869239910001    R2
Au    13.140000    9.272245    63.59869239910001    R2
Au    2.920000    1.685863    63.59869239910001    R2
Au    11.680000    1.685863    63.59869239910001    R2
Au    7.300000    9.272245    63.59869239910001    R2
Au    16.059999    9.272245    63.59869239910001    R2
Au    5.840000    1.685863    63.59869239910001    R2
Au    14.600000    1.685863    63.59869239910001    R2
Au    10.220000    9.272245    63.59869239910001    R2
Au    18.980000    9.272245    63.59869239910001    R2
Au    1.460000    4.214657    63.59869239910001    R2
Au    10.220000    4.214657    63.59869239910001    R2
Au    5.840000    11.801040    63.59869239910001    R2
Au    14.600000    11.801040    63.59869239910001    R2
Au    4.380000    4.214657    63.59869239910001    R2
Au    13.140000    4.214657    63.59869239910001    R2
Au    8.760000    11.801040    63.59869239910001    R2
Au    17.520000    11.801040    63.59869239910001    R2
Au    7.300000    4.214657    63.59869239910001    R2
Au    16.059999    4.214657    63.59869239910001    R2
Au    11.680000    11.801040    63.59869239910001    R2
Au    20.440001    11.801040    63.59869239910001    R2
Au    2.920000    6.743451    63.59869239910001    R2
Au    11.680000    6.743451    63.59869239910001    R2
Au    5.840000    6.743451    63.59869239910001    R2
Au    14.600000    6.743451    63.59869239910001    R2
Au    8.760000    6.743451    63.59869239910001    R2
Au    17.520000    6.743451    63.59869239910001    R2
Au    0.000000    0.000000    65.98286139909999    R3
Au    8.760000    0.000000    65.98286139909999    R3
Au    4.380000    7.586382    65.98286139909999    R3
Au    13.140000    7.586382    65.98286139909999    R3
Au    2.920000    0.000000    65.98286139909999    R3
Au    11.680000    0.000000    65.98286139909999    R3
Au    7.300000    7.586382    65.98286139909999    R3
Au    16.059999    7.586382    65.98286139909999    R3
Au    5.840000    0.000000    65.98286139909999    R3
Au    14.600000    0.000000    65.98286139909999    R3
Au    10.220000    7.586382    65.98286139909999    R3
Au    18.980000    7.586382    65.98286139909999    R3
Au    1.460000    2.528794    65.98286139909999    R3
Au    10.220000    2.528794    65.98286139909999    R3
Au    5.840000    10.115176    65.98286139909999    R3
Au    14.600000    10.115176    65.98286139909999    R3
Au    4.380000    2.528794    65.98286139909999    R3
Au    13.140000    2.528794    65.98286139909999    R3
Au    8.760000    10.115176    65.98286139909999    R3
Au    17.520000    10.115176    65.98286139909999    R3
Au    7.300000    2.528794    65.98286139909999    R3
Au    16.059999    2.528794    65.98286139909999    R3
Au    11.680000    10.115176    65.98286139909999    R3
Au    20.440001    10.115176    65.98286139909999    R3
Au    2.920000    5.057588    65.98286139909999    R3
Au    11.680000    5.057588    65.98286139909999    R3
Au    5.840000    5.057588    65.98286139909999    R3
Au    14.600000    5.057588    65.98286139909999    R3
Au    8.760000    5.057588    65.98286139909999    R3
Au    17.520000    5.057588    65.98286139909999    R3
Au    1.460000    0.842931    68.3670323991    R3
Au    10.220000    0.842931    68.3670323991    R3
Au    5.840000    8.429314    68.3670323991    R3
Au    14.600000    8.429314    68.3670323991    R3
Au    4.380000    0.842931    68.3670323991    R3
Au    13.140000    0.842931    68.3670323991    R3
Au    8.760000    8.429314    68.3670323991    R3
Au    17.520000    8.429314    68.3670323991    R3
Au    7.300000    0.842931    68.3670323991    R3
Au    16.059999    0.842931    68.3670323991    R3
Au    11.680000    8.429314    68.3670323991    R3
Au    20.440001    8.429314    68.3670323991    R3
Au    2.920000    3.371726    68.3670323991    R3
Au    11.680000    3.371726    68.3670323991    R3
Au    7.300000    10.958108    68.3670323991    R3
Au    16.059999    10.958108    68.3670323991    R3
Au    5.840000    3.371726    68.3670323991    R3
Au    14.600000    3.371726    68.3670323991    R3
Au    10.220000    10.958108    68.3670323991    R3
Au    18.980000    10.958108    68.3670323991    R3
Au    8.760000    3.371726    68.3670323991    R3
Au    17.520000    3.371726    68.3670323991    R3
Au    13.140000    10.958108    68.3670323991    R3
Au    21.900000    10.958108    68.3670323991    R3
Au    4.380000    5.900520    68.3670323991    R3
Au    13.140000    5.900520    68.3670323991    R3
Au    7.300000    5.900520    68.3670323991    R3
Au    16.059999    5.900520    68.3670323991    R3
Au    10.220000    5.900520    68.3670323991    R3
Au    18.980000    5.900520    68.3670323991    R3
Au    0.000000    1.685863    70.75120239910001    R3
Au    8.760000    1.685863    70.75120239910001    R3
Au    4.380000    9.272245    70.75120239910001    R3
Au    13.140000    9.272245    70.75120239910001    R3
Au    2.920000    1.685863    70.75120239910001    R3
Au    11.680000    1.685863    70.75120239910001    R3
Au    7.300000    9.272245    70.75120239910001    R3
Au    16.059999    9.272245    70.75120239910001    R3
Au    5.840000    1.685863    70.75120239910001    R3
Au    14.600000    1.685863    70.75120239910001    R3
Au    10.220000    9.272245    70.75120239910001    R3
Au    18.980000    9.272245    70.75120239910001    R3
Au    1.460000    4.214657    70.75120239910001    R3
Au    10.220000    4.214657    70.75120239910001    R3
Au    5.840000    11.801040    70.75120239910001    R3
Au    14.600000    11.801040    70.75120239910001    R3
Au    4.380000    4.214657    70.75120239910001    R3
Au    13.140000    4.214657    70.75120239910001    R3
Au    8.760000    11.801040    70.75120239910001    R3
Au    17.520000    11.801040    70.75120239910001    R3
Au    7.300000    4.214657    70.75120239910001    R3
Au    16.059999    4.214657    70.75120239910001    R3
Au    11.680000    11.801040    70.75120239910001    R3
Au    20.440001    11.801040    70.75120239910001    R3
Au    2.920000    6.743451    70.75120239910001    R3
Au    11.680000    6.743451    70.75120239910001    R3
Au    5.840000    6.743451    70.75120239910001    R3
Au    14.600000    6.743451    70.75120239910001    R3
Au    8.760000    6.743451    70.75120239910001    R3
Au    17.520000    6.743451    70.75120239910001    R3
