     137
 i =      167, E =     -2653.8846079003
 Au         1.6649000000        0.0000000000        0.0000000000
 Au         6.6598000000        0.0000000000        0.0000000000
 Au         4.1623000000        1.4419000000        0.0000000000
 Au         9.1572000000        1.4419000000        0.0000000000
 Au         6.6598000000        2.8838000000        0.0000000000
 Au        11.6546000000        2.8838000000        0.0000000000
 Au         4.1623000000        4.3256000000        0.0000000000
 Au         9.1572000000        4.3256000000        0.0000000000
 Au         6.6598000000        5.7675000000        0.0000000000
 Au        11.6546000000        5.7675000000        0.0000000000
 Au         9.1572000000        7.2094000000        0.0000000000
 Au        14.1520000000        7.2094000000        0.0000000000
 Au         3.3299000000        0.0000000000        2.3546000000
 Au         8.3247000000        0.0000000000        2.3546000000
 Au         5.8273000000        1.4419000000        2.3546000000
 Au        10.8221000000        1.4419000000        2.3546000000
 Au         8.3247000000        2.8838000000        2.3546000000
 Au        13.3195000000        2.8838000000        2.3546000000
 Au         5.8273000000        4.3256000000        2.3546000000
 Au        10.8221000000        4.3256000000        2.3546000000
 Au         8.3247000000        5.7675000000        2.3546000000
 Au        13.3195000000        5.7675000000        2.3546000000
 Au        10.8221000000        7.2094000000        2.3546000000
 Au        15.8169000000        7.2094000000        2.3546000000
 Au         0.0000000000        0.0000000000        4.7091000000
 Au         4.9948000000        0.0000000000        4.7091000000
 Au         2.4974000000        1.4419000000        4.7091000000
 Au         7.4922000000        1.4419000000        4.7091000000
 Au         4.9948000000        2.8838000000        4.7091000000
 Au         9.9896000000        2.8838000000        4.7091000000
 Au         2.4974000000        4.3256000000        4.7091000000
 Au         7.4922000000        4.3256000000        4.7091000000
 Au         4.9948000000        5.7675000000        4.7091000000
 Au         9.9896000000        5.7675000000        4.7091000000
 Au         7.4922000000        7.2094000000        4.7091000000
 Au        12.4870000000        7.2094000000        4.7091000000
  C         7.9146451259        4.3937270481        7.0001414571
  C         6.8580142391        4.5181932576        7.9819332633
  H         8.5187335745        5.3024502815        6.9176970530
  H         8.5369204938        3.5019362164        7.1139318618
  C         6.6836656865        3.6053490266        8.9728096837
  H         6.3092763288        5.4654582734        8.0196640535
  C         5.9846195560        3.8501905744       10.2743117408
  C         7.0380506829        4.1464400355       11.3749634839
  C         6.4966436720        4.2899949842       12.8047227455
  H         7.5675597187        5.0713628875       11.0909189432
  H         7.8014174941        3.3497953086       11.3572239081
  C         7.6152339950        4.7425602121       13.7591899064
  H         6.0742007269        3.3309950490       13.1475310057
  H         5.6707177667        5.0185279243       12.8277260466
  C         7.2568606975        4.9080553781       15.2310783064
  H         8.0020917649        5.7148575027       13.4011857901
  H         8.4662953756        4.0478031597       13.6931859680
  C         8.1951071197        4.7747842601       16.2324928677
  C         7.8810774204        5.0722633504       17.6945507447
  C         8.7657513608        4.3749624500       18.7386135464
  H         6.8221020605        4.8313399975       17.8744728240
  H         7.9619224781        6.1656108891       17.8383121284
  C         8.3624361635        4.7382099458       20.1739645339
  H         9.8202276671        4.6454283955       18.5685570047
  H         8.7071254713        3.2816506348       18.6058756906
  C         9.3105849391        4.1358856000       21.2334856930
  H         7.3353456076        4.3900906018       20.3690696552
  H         8.3482721303        5.8344013143       20.2943417257
  C         8.8296217141        4.3100581137       22.6461709171
  H        10.3081777581        4.5885767538       21.1403593160
  H         9.4261026751        3.0555804287       21.0445184435
  C         9.2855984783        5.1500397322       23.5986720643
  C         8.7448388058        5.3541131411       24.9835618488
  C         9.7500289373        5.2309712722       26.1451118255
  H         7.9276875685        4.6347756684       25.1312897054
  H         8.2866584907        6.3580165109       25.0254203046
  C         9.0148215579        5.2867895921       27.4914218377
  H        10.4929392693        6.0408685437       26.0797022908
  H        10.3080045655        4.2842544659       26.0616565993
  C         9.9529922739        5.4071998839       28.7102134269
  H         8.3932300441        4.3827972102       27.5995592384
  H         8.3157992680        6.1392625012       27.4931378196
  C         9.2198711143        5.3017685522       30.0310681697
  H        10.4737762842        6.3804979137       28.6661471479
  H        10.7320388618        4.6317689501       28.6762163416
  C         9.5781360593        4.4645002701       31.0745395582
  C         8.7856278588        4.2538132240       32.2925403102
  H         7.7854843940        4.6970727671       32.2362552637
  H         8.7509190347        3.1985564699       32.5887617235
  C         9.5300897172        4.4266422078       15.9042590392
  C        10.6864707163        4.1305246935       15.6625790262
  H        11.6969186796        3.8585308548       15.4413285271
  C         5.9338694569        5.3083517965       15.5453221365
  C         4.7908597642        5.6623595447       15.7716125265
  H         3.7965394506        5.9919948989       15.9889060002
  C        10.7704965111        3.6871445310       30.9353687567
  C         8.0493470731        6.0905710883       30.1773055533
  N        11.7477684449        3.0479787041       30.8511953359
  N         7.0819334315        6.7480201753       30.2702462666
 Cl        10.6293620921        6.2128454818       23.1883545858
 Cl         7.4666904887        3.2626478208       23.0364029809
  H         5.2852396569        4.6968805712       10.1885092734
  H         5.3957200574        2.9627135911       10.5634920472
  H         7.2331509773        2.6592378027        8.8942764455
 Au         9.5967844016        5.0535373223       34.1193376278
 Au         2.9369844016       -0.7139626777       36.4739406278
 Au         7.9318844016       -0.7139626777       36.4739406278
 Au         5.4343844016        0.7279373223       36.4739406278
 Au        10.4292844016        0.7279373223       36.4739406278
 Au         7.9318844016        2.1698373223       36.4739406278
 Au        12.9266844016        2.1698373223       36.4739406278
 Au         5.4343844016        3.6116373223       36.4739406278
 Au        10.4292844016        3.6116373223       36.4739406278
 Au         7.9318844016        5.0535373223       36.4739406278
 Au        12.9266844016        5.0535373223       36.4739406278
 Au        10.4292844016        6.4954373223       36.4739406278
 Au        15.4240844016        6.4954373223       36.4739406278
 Au         4.6019844016       -0.7139626777       38.8285426278
 Au         9.5967844016       -0.7139626777       38.8285426278
 Au         7.0993844016        0.7279373223       38.8285426278
 Au        12.0941844016        0.7279373223       38.8285426278
 Au         9.5967844016        2.1698373223       38.8285426278
 Au        14.5915844016        2.1698373223       38.8285426278
 Au         7.0993844016        3.6116373223       38.8285426278
 Au        12.0941844016        3.6116373223       38.8285426278
 Au         9.5967844016        5.0535373223       38.8285426278
 Au        14.5915844016        5.0535373223       38.8285426278
 Au        12.0941844016        6.4954373223       38.8285426278
 Au        17.0889844016        6.4954373223       38.8285426278
 Au         1.2720844016       -0.7139626777       41.1829396278
 Au         6.2668844016       -0.7139626777       41.1831386278
 Au         3.7694844016        0.7279373223       41.1831386278
 Au         8.7642844016        0.7279373223       41.1831386278
 Au         6.2668844016        2.1698373223       41.1831386278
 Au        11.2616844016        2.1698373223       41.1831386278
 Au         3.7694844016        3.6116373223       41.1831386278
 Au         8.7642844016        3.6116373223       41.1831386278
 Au         6.2668844016        5.0535373223       41.1831386278
 Au        11.2616844016        5.0535373223       41.1831386278
 Au         8.7642844016        6.4954373223       41.1831386278
 Au        13.7590844016        6.4954373223       41.1831386278
Au    1.664900    0.000000    64.9760004626    R1
Au    6.659800    0.000000    64.9760004626    R1
Au    4.162300    1.441900    64.9760004626    R1
Au    9.157200    1.441900    64.9760004626    R1
Au    6.659800    2.883800    64.9760004626    R1
Au    11.654600    2.883800    64.9760004626    R1
Au    4.162300    4.325600    64.9760004626    R1
Au    9.157200    4.325600    64.9760004626    R1
Au    6.659800    5.767500    64.9760004626    R1
Au    11.654600    5.767500    64.9760004626    R1
Au    9.157200    7.209400    64.9760004626    R1
Au    14.152000    7.209400    64.9760004626    R1
Au    3.329900    0.000000    67.33059946259999    R1
Au    8.324700    0.000000    67.33059946259999    R1
Au    5.827300    1.441900    67.33059946259999    R1
Au    10.822100    1.441900    67.33059946259999    R1
Au    8.324700    2.883800    67.33059946259999    R1
Au    13.319500    2.883800    67.33059946259999    R1
Au    5.827300    4.325600    67.33059946259999    R1
Au    10.822100    4.325600    67.33059946259999    R1
Au    8.324700    5.767500    67.33059946259999    R1
Au    13.319500    5.767500    67.33059946259999    R1
Au    10.822100    7.209400    67.33059946259999    R1
Au    15.816900    7.209400    67.33059946259999    R1
Au    0.000000    0.000000    69.68519446260001    R1
Au    4.994800    0.000000    69.68519446260001    R1
Au    2.497400    1.441900    69.68519446260001    R1
Au    7.492200    1.441900    69.68519446260001    R1
Au    4.994800    2.883800    69.68519446260001    R1
Au    9.989600    2.883800    69.68519446260001    R1
Au    2.497400    4.325600    69.68519446260001    R1
Au    7.492200    4.325600    69.68519446260001    R1
Au    4.994800    5.767500    69.68519446260001    R1
Au    9.989600    5.767500    69.68519446260001    R1
Au    7.492200    7.209400    69.68519446260001    R1
Au    12.487000    7.209400    69.68519446260001    R1
Au    1.664900    0.000000    72.0397992626    R2
Au    6.659800    0.000000    72.0397992626    R2
Au    4.162300    1.441900    72.0397992626    R2
Au    9.157200    1.441900    72.0397992626    R2
Au    6.659800    2.883800    72.0397992626    R2
Au    11.654600    2.883800    72.0397992626    R2
Au    4.162300    4.325600    72.0397992626    R2
Au    9.157200    4.325600    72.0397992626    R2
Au    6.659800    5.767500    72.0397992626    R2
Au    11.654600    5.767500    72.0397992626    R2
Au    9.157200    7.209400    72.0397992626    R2
Au    14.152000    7.209400    72.0397992626    R2
Au    3.329900    0.000000    74.39439876259999    R2
Au    8.324700    0.000000    74.39439876259999    R2
Au    5.827300    1.441900    74.39439876259999    R2
Au    10.822100    1.441900    74.39439876259999    R2
Au    8.324700    2.883800    74.39439876259999    R2
Au    13.319500    2.883800    74.39439876259999    R2
Au    5.827300    4.325600    74.39439876259999    R2
Au    10.822100    4.325600    74.39439876259999    R2
Au    8.324700    5.767500    74.39439876259999    R2
Au    13.319500    5.767500    74.39439876259999    R2
Au    10.822100    7.209400    74.39439876259999    R2
Au    15.816900    7.209400    74.39439876259999    R2
Au    0.000000    0.000000    76.7490057626    R2
Au    4.994800    0.000000    76.7490057626    R2
Au    2.497400    1.441900    76.7490057626    R2
Au    7.492200    1.441900    76.7490057626    R2
Au    4.994800    2.883800    76.7490057626    R2
Au    9.989600    2.883800    76.7490057626    R2
Au    2.497400    4.325600    76.7490057626    R2
Au    7.492200    4.325600    76.7490057626    R2
Au    4.994800    5.767500    76.7490057626    R2
Au    9.989600    5.767500    76.7490057626    R2
Au    7.492200    7.209400    76.7490057626    R2
Au    12.487000    7.209400    76.7490057626    R2
Au    1.664900    0.000000    79.1035992626    R3
Au    6.659800    0.000000    79.1035992626    R3
Au    4.162300    1.441900    79.1035992626    R3
Au    9.157200    1.441900    79.1035992626    R3
Au    6.659800    2.883800    79.1035992626    R3
Au    11.654600    2.883800    79.1035992626    R3
Au    4.162300    4.325600    79.1035992626    R3
Au    9.157200    4.325600    79.1035992626    R3
Au    6.659800    5.767500    79.1035992626    R3
Au    11.654600    5.767500    79.1035992626    R3
Au    9.157200    7.209400    79.1035992626    R3
Au    14.152000    7.209400    79.1035992626    R3
Au    3.329900    0.000000    81.4581987626    R3
Au    8.324700    0.000000    81.4581987626    R3
Au    5.827300    1.441900    81.4581987626    R3
Au    10.822100    1.441900    81.4581987626    R3
Au    8.324700    2.883800    81.4581987626    R3
Au    13.319500    2.883800    81.4581987626    R3
Au    5.827300    4.325600    81.4581987626    R3
Au    10.822100    4.325600    81.4581987626    R3
Au    8.324700    5.767500    81.4581987626    R3
Au    13.319500    5.767500    81.4581987626    R3
Au    10.822100    7.209400    81.4581987626    R3
Au    15.816900    7.209400    81.4581987626    R3
Au    0.000000    0.000000    83.8128057626    R3
Au    4.994800    0.000000    83.8128057626    R3
Au    2.497400    1.441900    83.8128057626    R3
Au    7.492200    1.441900    83.8128057626    R3
Au    4.994800    2.883800    83.8128057626    R3
Au    9.989600    2.883800    83.8128057626    R3
Au    2.497400    4.325600    83.8128057626    R3
Au    7.492200    4.325600    83.8128057626    R3
Au    4.994800    5.767500    83.8128057626    R3
Au    9.989600    5.767500    83.8128057626    R3
Au    7.492200    7.209400    83.8128057626    R3
Au    12.487000    7.209400    83.8128057626    R3
