    137
 i =      339, E =     -2653.8751394134
 Au         1.6649000000        0.0000000000        0.0000000000
 Au         6.6598000000        0.0000000000        0.0000000000
 Au         4.1623000000        1.4419000000        0.0000000000
 Au         9.1572000000        1.4419000000        0.0000000000
 Au         6.6598000000        2.8838000000        0.0000000000
 Au        11.6546000000        2.8838000000        0.0000000000
 Au         4.1623000000        4.3256000000        0.0000000000
 Au         9.1572000000        4.3256000000        0.0000000000
 Au         6.6598000000        5.7675000000        0.0000000000
 Au        11.6546000000        5.7675000000        0.0000000000
 Au         9.1572000000        7.2094000000        0.0000000000
 Au        14.1520000000        7.2094000000        0.0000000000
 Au         3.3299000000        0.0000000000        2.3546000000
 Au         8.3247000000        0.0000000000        2.3546000000
 Au         5.8273000000        1.4419000000        2.3546000000
 Au        10.8221000000        1.4419000000        2.3546000000
 Au         8.3247000000        2.8838000000        2.3546000000
 Au        13.3195000000        2.8838000000        2.3546000000
 Au         5.8273000000        4.3256000000        2.3546000000
 Au        10.8221000000        4.3256000000        2.3546000000
 Au         8.3247000000        5.7675000000        2.3546000000
 Au        13.3195000000        5.7675000000        2.3546000000
 Au        10.8221000000        7.2094000000        2.3546000000
 Au        15.8169000000        7.2094000000        2.3546000000
 Au         0.0000000000        0.0000000000        4.7091000000
 Au         4.9948000000        0.0000000000        4.7091000000
 Au         2.4974000000        1.4419000000        4.7091000000
 Au         7.4922000000        1.4419000000        4.7091000000
 Au         4.9948000000        2.8838000000        4.7091000000
 Au         9.9896000000        2.8838000000        4.7091000000
 Au         2.4974000000        4.3256000000        4.7091000000
 Au         7.4922000000        4.3256000000        4.7091000000
 Au         4.9948000000        5.7675000000        4.7091000000
 Au         9.9896000000        5.7675000000        4.7091000000
 Au         7.4922000000        7.2094000000        4.7091000000
 Au        12.4870000000        7.2094000000        4.7091000000
  C         8.0013422747        4.4664048014        7.1892129932
  C         7.0619603247        4.6511064049        8.2607855775
  H         8.5435217850        5.3714852035        6.9085738286
  H         8.6224750703        3.5692452189        7.2271915886
  C         6.9863527029        3.8097850683        9.3346619285
  H         6.5164343668        5.6004663914        8.2939084397
  C         6.3248661976        4.1039319543       10.6483990429
  C         7.3388861461        4.1939201483       11.8232036653
  C         6.6976320346        4.3827671888       13.2112980463
  H         8.0309179425        5.0284162125       11.6209386603
  H         7.9592041962        3.2814241896       11.8278067949
  C         7.7544705124        4.5324327530       14.3226601651
  H         6.0393107310        3.5269016655       13.4348067666
  H         6.0459629831        5.2711417483       13.1992415828
  C         7.2468179955        4.7606752496       15.7506880430
  H         8.4170115765        5.3793776448       14.0674694723
  H         8.4124090632        3.6484209331       14.3342122574
  C         8.0766822720        4.6531634116       16.8498879337
  C         7.6188434355        4.9855170779       18.2739379627
  C         8.4627726565        4.3952842195       19.4202148909
  H         6.5671033212        4.6756054395       18.3762058962
  H         7.6083011301        6.0867547331       18.3703895585
  C         7.9480646900        4.7645778695       20.8257414926
  H         9.5056115410        4.7346423437       19.3123642370
  H         8.4919856216        3.2968883594       19.3241506994
  C         8.8859756481        4.2408489065       21.9420058805
  H         6.9374012641        4.3504707026       20.9712405439
  H         7.8554673333        5.8596295171       20.9173124414
  C         8.3685720050        4.3292798023       23.3557706861
  H         9.8474462528        4.7709696746       21.8918130330
  H         9.1007001791        3.1761153131       21.7441866518
  C         8.8309073995        5.0653785866       24.3923710128
  C         8.3087181826        5.1187825345       25.8085791850
  C         9.3554326891        5.0685353787       26.9471897939
  H         7.5914673461        4.2945632802       25.9287574908
  H         7.7260774725        6.0515536098       25.9174710758
  C         8.6862973351        5.0543685514       28.3365489058
  H        10.0218834077        5.9411600457       26.8650847566
  H         9.9925888908        4.1771269067       26.8286458540
  C         9.6776781871        5.2512341597       29.5100719956
  H         8.1446735691        4.1044598588       28.4764236620
  H         7.9247328850        5.8495919461       28.3808745089
  C         9.0324854947        5.2002645478       30.8875205583
  H        10.1704114883        6.2334299796       29.3940644091
  H        10.4779355968        4.4984231425       29.4699473941
  C         9.5124879271        4.4830445744       31.9744233872
  C         8.7964021013        4.2952348147       33.2488276425
  H         7.7844874812        4.7137659888       33.2260878208
  H         8.7901529100        3.2381957640       33.5460487136
  C         9.4326588760        4.2869411145       16.6591180802
  C        10.6007313970        3.9712824344       16.5190431543
  H        11.6226615535        3.6763922010       16.4039900731
  C         5.9003616512        5.1614258218       15.9269651677
  C         4.7405885846        5.5128015896       16.0487803074
  H         3.7315346619        5.8435347001       16.1733008463
  C        10.7467413284        3.7779021415       31.8134493036
  C         7.8259326560        5.9329106947       31.0401193722
  N        11.7595162218        3.2016860426       31.6978693289
  N         6.8333757811        6.5540447078       31.1146888988
 Cl        10.1508566751        6.1866796977       24.0702203906
 Cl         7.0072133507        3.2486063999       23.6500869951
  H         5.7436473888        5.0373901768       10.5820465010
  H         5.6057381027        3.2950070846       10.8760958655
  H         7.5400967021        2.8644772610        9.2782162560
 Au         9.5967844016        5.0535373223       35.1193376278
 Au         2.9369844016       -0.7139626777       37.4739406278
 Au         7.9318844016       -0.7139626777       37.4739406278
 Au         5.4343844016        0.7279373223       37.4739406278
 Au        10.4292844016        0.7279373223       37.4739406278
 Au         7.9318844016        2.1698373223       37.4739406278
 Au        12.9266844016        2.1698373223       37.4739406278
 Au         5.4343844016        3.6116373223       37.4739406278
 Au        10.4292844016        3.6116373223       37.4739406278
 Au         7.9318844016        5.0535373223       37.4739406278
 Au        12.9266844016        5.0535373223       37.4739406278
 Au        10.4292844016        6.4954373223       37.4739406278
 Au        15.4240844016        6.4954373223       37.4739406278
 Au         4.6019844016       -0.7139626777       39.8285426278
 Au         9.5967844016       -0.7139626777       39.8285426278
 Au         7.0993844016        0.7279373223       39.8285426278
 Au        12.0941844016        0.7279373223       39.8285426278
 Au         9.5967844016        2.1698373223       39.8285426278
 Au        14.5915844016        2.1698373223       39.8285426278
 Au         7.0993844016        3.6116373223       39.8285426278
 Au        12.0941844016        3.6116373223       39.8285426278
 Au         9.5967844016        5.0535373223       39.8285426278
 Au        14.5915844016        5.0535373223       39.8285426278
 Au        12.0941844016        6.4954373223       39.8285426278
 Au        17.0889844016        6.4954373223       39.8285426278
 Au         1.2720844016       -0.7139626777       42.1829396278
 Au         6.2668844016       -0.7139626777       42.1831386278
 Au         3.7694844016        0.7279373223       42.1831386278
 Au         8.7642844016        0.7279373223       42.1831386278
 Au         6.2668844016        2.1698373223       42.1831386278
 Au        11.2616844016        2.1698373223       42.1831386278
 Au         3.7694844016        3.6116373223       42.1831386278
 Au         8.7642844016        3.6116373223       42.1831386278
 Au         6.2668844016        5.0535373223       42.1831386278
 Au        11.2616844016        5.0535373223       42.1831386278
 Au         8.7642844016        6.4954373223       42.1831386278
 Au        13.7590844016        6.4954373223       42.1831386278
 Au    1.664900    0.000000    64.9760004626    R1
Au    6.659800    0.000000    64.9760004626    R1
Au    4.162300    1.441900    64.9760004626    R1
Au    9.157200    1.441900    64.9760004626    R1
Au    6.659800    2.883800    64.9760004626    R1
Au    11.654600    2.883800    64.9760004626    R1
Au    4.162300    4.325600    64.9760004626    R1
Au    9.157200    4.325600    64.9760004626    R1
Au    6.659800    5.767500    64.9760004626    R1
Au    11.654600    5.767500    64.9760004626    R1
Au    9.157200    7.209400    64.9760004626    R1
Au    14.152000    7.209400    64.9760004626    R1
Au    3.329900    0.000000    67.33059946259999    R1
Au    8.324700    0.000000    67.33059946259999    R1
Au    5.827300    1.441900    67.33059946259999    R1
Au    10.822100    1.441900    67.33059946259999    R1
Au    8.324700    2.883800    67.33059946259999    R1
Au    13.319500    2.883800    67.33059946259999    R1
Au    5.827300    4.325600    67.33059946259999    R1
Au    10.822100    4.325600    67.33059946259999    R1
Au    8.324700    5.767500    67.33059946259999    R1
Au    13.319500    5.767500    67.33059946259999    R1
Au    10.822100    7.209400    67.33059946259999    R1
Au    15.816900    7.209400    67.33059946259999    R1
Au    0.000000    0.000000    69.68519446260001    R1
Au    4.994800    0.000000    69.68519446260001    R1
Au    2.497400    1.441900    69.68519446260001    R1
Au    7.492200    1.441900    69.68519446260001    R1
Au    4.994800    2.883800    69.68519446260001    R1
Au    9.989600    2.883800    69.68519446260001    R1
Au    2.497400    4.325600    69.68519446260001    R1
Au    7.492200    4.325600    69.68519446260001    R1
Au    4.994800    5.767500    69.68519446260001    R1
Au    9.989600    5.767500    69.68519446260001    R1
Au    7.492200    7.209400    69.68519446260001    R1
Au    12.487000    7.209400    69.68519446260001    R1
Au    1.664900    0.000000    72.0397992626    R2
Au    6.659800    0.000000    72.0397992626    R2
Au    4.162300    1.441900    72.0397992626    R2
Au    9.157200    1.441900    72.0397992626    R2
Au    6.659800    2.883800    72.0397992626    R2
Au    11.654600    2.883800    72.0397992626    R2
Au    4.162300    4.325600    72.0397992626    R2
Au    9.157200    4.325600    72.0397992626    R2
Au    6.659800    5.767500    72.0397992626    R2
Au    11.654600    5.767500    72.0397992626    R2
Au    9.157200    7.209400    72.0397992626    R2
Au    14.152000    7.209400    72.0397992626    R2
Au    3.329900    0.000000    74.39439876259999    R2
Au    8.324700    0.000000    74.39439876259999    R2
Au    5.827300    1.441900    74.39439876259999    R2
Au    10.822100    1.441900    74.39439876259999    R2
Au    8.324700    2.883800    74.39439876259999    R2
Au    13.319500    2.883800    74.39439876259999    R2
Au    5.827300    4.325600    74.39439876259999    R2
Au    10.822100    4.325600    74.39439876259999    R2
Au    8.324700    5.767500    74.39439876259999    R2
Au    13.319500    5.767500    74.39439876259999    R2
Au    10.822100    7.209400    74.39439876259999    R2
Au    15.816900    7.209400    74.39439876259999    R2
Au    0.000000    0.000000    76.7490057626    R2
Au    4.994800    0.000000    76.7490057626    R2
Au    2.497400    1.441900    76.7490057626    R2
Au    7.492200    1.441900    76.7490057626    R2
Au    4.994800    2.883800    76.7490057626    R2
Au    9.989600    2.883800    76.7490057626    R2
Au    2.497400    4.325600    76.7490057626    R2
Au    7.492200    4.325600    76.7490057626    R2
Au    4.994800    5.767500    76.7490057626    R2
Au    9.989600    5.767500    76.7490057626    R2
Au    7.492200    7.209400    76.7490057626    R2
Au    12.487000    7.209400    76.7490057626    R2
Au    1.664900    0.000000    79.1035992626    R3
Au    6.659800    0.000000    79.1035992626    R3
Au    4.162300    1.441900    79.1035992626    R3
Au    9.157200    1.441900    79.1035992626    R3
Au    6.659800    2.883800    79.1035992626    R3
Au    11.654600    2.883800    79.1035992626    R3
Au    4.162300    4.325600    79.1035992626    R3
Au    9.157200    4.325600    79.1035992626    R3
Au    6.659800    5.767500    79.1035992626    R3
Au    11.654600    5.767500    79.1035992626    R3
Au    9.157200    7.209400    79.1035992626    R3
Au    14.152000    7.209400    79.1035992626    R3
Au    3.329900    0.000000    81.4581987626    R3
Au    8.324700    0.000000    81.4581987626    R3
Au    5.827300    1.441900    81.4581987626    R3
Au    10.822100    1.441900    81.4581987626    R3
Au    8.324700    2.883800    81.4581987626    R3
Au    13.319500    2.883800    81.4581987626    R3
Au    5.827300    4.325600    81.4581987626    R3
Au    10.822100    4.325600    81.4581987626    R3
Au    8.324700    5.767500    81.4581987626    R3
Au    13.319500    5.767500    81.4581987626    R3
Au    10.822100    7.209400    81.4581987626    R3
Au    15.816900    7.209400    81.4581987626    R3
Au    0.000000    0.000000    83.8128057626    R3
Au    4.994800    0.000000    83.8128057626    R3
Au    2.497400    1.441900    83.8128057626    R3
Au    7.492200    1.441900    83.8128057626    R3
Au    4.994800    2.883800    83.8128057626    R3
Au    9.989600    2.883800    83.8128057626    R3
Au    2.497400    4.325600    83.8128057626    R3
Au    7.492200    4.325600    83.8128057626    R3
Au    4.994800    5.767500    83.8128057626    R3
Au    9.989600    5.767500    83.8128057626    R3
Au    7.492200    7.209400    83.8128057626    R3
Au    12.487000    7.209400    83.8128057626    R3
