     100
 i =      409, E =     -1424.2255494121
 Au         1.6649000000        0.0000000000        0.0000000000
 Au         6.6598000000        0.0000000000        0.0000000000
 Au         4.1623000000        1.4419000000        0.0000000000
 Au         9.1572000000        1.4419000000        0.0000000000
 Au         6.6598000000        2.8838000000        0.0000000000
 Au        11.6546000000        2.8838000000        0.0000000000
 Au         4.1623000000        4.3256000000        0.0000000000
 Au         9.1572000000        4.3256000000        0.0000000000
 Au         6.6598000000        5.7675000000        0.0000000000
 Au        11.6546000000        5.7675000000        0.0000000000
 Au         9.1572000000        7.2094000000        0.0000000000
 Au        14.1520000000        7.2094000000        0.0000000000
 Au         3.3299000000        0.0000000000        2.3546000000
 Au         8.3247000000        0.0000000000        2.3546000000
 Au         5.8273000000        1.4419000000        2.3546000000
 Au        10.8221000000        1.4419000000        2.3546000000
 Au         8.3247000000        2.8838000000        2.3546000000
 Au        13.3195000000        2.8838000000        2.3546000000
 Au         5.8273000000        4.3256000000        2.3546000000
 Au        10.8221000000        4.3256000000        2.3546000000
 Au         8.3247000000        5.7675000000        2.3546000000
 Au        13.3195000000        5.7675000000        2.3546000000
 Au        10.8221000000        7.2094000000        2.3546000000
 Au        15.8169000000        7.2094000000        2.3546000000
 Au         0.0000000000        0.0000000000        4.7091000000
 Au         4.9948000000        0.0000000000        4.7091000000
 Au         2.4974000000        1.4419000000        4.7091000000
 Au         7.4922000000        1.4419000000        4.7091000000
 Au         4.9948000000        2.8838000000        4.7091000000
 Au         9.9896000000        2.8838000000        4.7091000000
 Au         2.4974000000        4.3256000000        4.7091000000
 Au         7.4922000000        4.3256000000        4.7091000000
 Au         4.9948000000        5.7675000000        4.7091000000
 Au         9.9896000000        5.7675000000        4.7091000000
 Au         7.4922000000        7.2094000000        4.7091000000
 Au        12.4870000000        7.2094000000        4.7091000000
  C         7.9313186279        4.3844085878        6.9791322124
  C         6.8602401582        4.5368203609        7.9418701756
  H         8.5705986812        5.2708534604        6.9210973703
  H         8.5226918933        3.4735768370        7.1066561381
  C         6.6329875480        3.6152797155        8.9104396582
  H         6.3459451259        5.5030972269        7.9856618731
  C         5.9505151801        3.8844752097       10.2133194910
  C         7.0370957599        4.2116748217       11.2682856889
  C         6.5474595351        4.3598516581       12.7104570822
  H         7.5411993248        5.1408186637       10.9531190105
  H         7.8140528832        3.4289312076       11.2314481036
  C         7.6929756254        4.8511542584       13.6067623825
  H         6.1650425489        3.3945413566       13.0812188065
  H         5.7063042773        5.0691849873       12.7589131739
  C         7.3907799105        4.9622486977       15.0892683033
  H         8.0092667271        5.8488072087       13.2500202888
  H         8.5714720374        4.2000652312       13.4837881983
  C         8.3536796724        4.7753130401       16.0546501677
  C         8.0647012490        5.0130463915       17.5273772146
  C         8.9056461847        4.2222407693       18.5372111118
  H         6.9947995917        4.8199235865       17.6986380716
  H         8.2052036985        6.0912769579       17.7272537644
  C         8.4396246921        4.5084229960       19.9680653039
  H         9.9692570347        4.4884090785       18.4257726712
  H         8.8345896951        3.1423319883       18.3260539061
  C         9.3532479584        3.9056176126       21.0513057884
  H         7.4147460448        4.1264012339       20.1044545787
  H         8.3883745529        5.5982602406       20.1262758076
  C         8.8269159551        4.1445123026       22.4365533913
  H        10.3585610467        4.3450298662       20.9743589608
  H         9.4590591204        2.8212531528       20.8947410778
  C         9.1147309338        5.1693782054       23.2623923647
  C         8.5699591487        5.4458824448       24.6303938360
  C         9.5944778305        5.2513358275       25.7630161739
  H         7.7093962386        4.7829952598       24.7991544855
  H         8.1889996514        6.4806871705       24.6564791283
  C         8.9919137947        5.5631434142       27.1353891578
  H        10.4719127786        5.8930289477       25.5824647776
  H         9.9565061053        4.2103970611       25.7396408788
  C         9.9520442369        5.2246872389       28.2789993939
  H         8.0569322649        4.9943929209       27.2688778350
  H         8.7107025429        6.6271928650       27.1857185099
  C         9.4150379872        5.4562071261       29.6640871203
  H        10.8896446489        5.8051398673       28.1646758217
  H        10.2725351378        4.1709371416       28.2066415130
  C        10.0288139768        4.8750696121       30.8247419882
  C         9.5967844016        5.0535373223       32.1193376278
  H         8.7323618458        5.6796194959       32.3333612199
  H        10.1077927924        4.5723643464       32.9494953058
  C         9.6811666826        4.4334611565       15.6908893838
  C        10.8361491744        4.1471994782       15.4309673724
  H        11.8460312330        3.8872987815       15.1919171561
  C         6.0797645045        5.3588492437       15.4548904200
  C         4.9423713102        5.7122750478       15.7079970778
  H         3.9523295477        6.0365183466       15.9492028934
  C        11.1844481623        4.0511421055       30.6058310419
  C         8.2918216320        6.2718322417       29.8418905640
  N        12.1278888551        3.3865081159       30.4164498460
  N         7.3394293320        6.9527933102       29.9782633667
 Cl        10.2750045310        6.3723915059       22.7054498197
 Cl         7.6440150732        2.9526004598       22.9588120693
  H         5.2486589525        4.7287659186       10.1251523791
  H         5.3733441016        3.0030232833       10.5396116984
  H         7.1470307091        2.6500196047        8.8295691172
 Au      8.324700    5.767500    45.4192882128 R0
Au      1.664900    0.000000    47.773891212799995 R0
Au      6.659800    0.000000    47.773891212799995 R0
Au      4.162300    1.441900    47.773891212799995 R0
Au      9.157200    1.441900    47.773891212799995 R0
Au      6.659800    2.883800    47.773891212799995 R0
Au      11.654600    2.883800    47.773891212799995 R0
Au      4.162300    4.325600    47.773891212799995 R0
Au      9.157200    4.325600    47.773891212799995 R0
Au      6.659800    5.767500    47.773891212799995 R0
Au      11.654600    5.767500    47.773891212799995 R0
Au      9.157200    7.209400    47.773891212799995 R0
Au      14.152000    7.209400    47.773891212799995 R0
Au      3.329900    0.000000    50.128493212799995 R0
Au      8.324700    0.000000    50.128493212799995 R0
Au      5.827300    1.441900    50.128493212799995 R0
Au      10.822100    1.441900    50.128493212799995 R0
Au      8.324700    2.883800    50.128493212799995 R0
Au      13.319500    2.883800    50.128493212799995 R0
Au      5.827300    4.325600    50.128493212799995 R0
Au      10.822100    4.325600    50.128493212799995 R0
Au      8.324700    5.767500    50.128493212799995 R0
Au      13.319500    5.767500    50.128493212799995 R0
Au      10.822100    7.209400    50.128493212799995 R0
Au      15.816900    7.209400    50.128493212799995 R0
Au      0.000000    0.000000    52.4828902128 R0
Au      4.994800    0.000000    52.483089212799996 R0
Au      2.497400    1.441900    52.483089212799996 R0
Au      7.492200    1.441900    52.483089212799996 R0
Au      4.994800    2.883800    52.483089212799996 R0
Au      9.989600    2.883800    52.483089212799996 R0
Au      2.497400    4.325600    52.483089212799996 R0
Au      7.492200    4.325600    52.483089212799996 R0
Au      4.994800    5.767500    52.483089212799996 R0
Au      9.989600    5.767500    52.483089212799996 R0
Au      7.492200    7.209400    52.483089212799996 R0
Au      12.487000    7.209400    52.483089212799996 R0
Au      1.664900    0.000000    54.8375922128 R1
Au      6.659800    0.000000    54.8375922128 R1
Au      4.162300    1.441900    54.8375922128 R1
Au      9.157200    1.441900    54.8375922128 R1
Au      6.659800    2.883800    54.8375922128 R1
Au      11.654600    2.883800    54.8375922128 R1
Au      4.162300    4.325600    54.8375922128 R1
Au      9.157200    4.325600    54.8375922128 R1
Au      6.659800    5.767500    54.8375922128 R1
Au      11.654600    5.767500    54.8375922128 R1
Au      9.157200    7.209400    54.8375922128 R1
Au      14.152000    7.209400    54.8375922128 R1
Au      3.329900    0.000000    57.1921912128 R1
Au      8.324700    0.000000    57.1921912128 R1
Au      5.827300    1.441900    57.1921912128 R1
Au      10.822100    1.441900    57.1921912128 R1
Au      8.324700    2.883800    57.1921912128 R1
Au      13.319500    2.883800    57.1921912128 R1
Au      5.827300    4.325600    57.1921912128 R1
Au      10.822100    4.325600    57.1921912128 R1
Au      8.324700    5.767500    57.1921912128 R1
Au      13.319500    5.767500    57.1921912128 R1
Au      10.822100    7.209400    57.1921912128 R1
Au      15.816900    7.209400    57.1921912128 R1
Au      0.000000    0.000000    59.5467862128 R1
Au      4.994800    0.000000    59.5467862128 R1
Au      2.497400    1.441900    59.5467862128 R1
Au      7.492200    1.441900    59.5467862128 R1
Au      4.994800    2.883800    59.5467862128 R1
Au      9.989600    2.883800    59.5467862128 R1
Au      2.497400    4.325600    59.5467862128 R1
Au      7.492200    4.325600    59.5467862128 R1
Au      4.994800    5.767500    59.5467862128 R1
Au      9.989600    5.767500    59.5467862128 R1
Au      7.492200    7.209400    59.5467862128 R1
Au      12.487000    7.209400    59.5467862128 R1
Au      1.664900    0.000000    61.9013910128 R2
Au      6.659800    0.000000    61.9013910128 R2
Au      4.162300    1.441900    61.9013910128 R2
Au      9.157200    1.441900    61.9013910128 R2
Au      6.659800    2.883800    61.9013910128 R2
Au      11.654600    2.883800    61.9013910128 R2
Au      4.162300    4.325600    61.9013910128 R2
Au      9.157200    4.325600    61.9013910128 R2
Au      6.659800    5.767500    61.9013910128 R2
Au      11.654600    5.767500    61.9013910128 R2
Au      9.157200    7.209400    61.9013910128 R2
Au      14.152000    7.209400    61.9013910128 R2
Au      3.329900    0.000000    64.2559905128 R2
Au      8.324700    0.000000    64.2559905128 R2
Au      5.827300    1.441900    64.2559905128 R2
Au      10.822100    1.441900    64.2559905128 R2
Au      8.324700    2.883800    64.2559905128 R2
Au      13.319500    2.883800    64.2559905128 R2
Au      5.827300    4.325600    64.2559905128 R2
Au      10.822100    4.325600    64.2559905128 R2
Au      8.324700    5.767500    64.2559905128 R2
Au      13.319500    5.767500    64.2559905128 R2
Au      10.822100    7.209400    64.2559905128 R2
Au      15.816900    7.209400    64.2559905128 R2
Au      0.000000    0.000000    66.6105975128 R2
Au      4.994800    0.000000    66.6105975128 R2
Au      2.497400    1.441900    66.6105975128 R2
Au      7.492200    1.441900    66.6105975128 R2
Au      4.994800    2.883800    66.6105975128 R2
Au      9.989600    2.883800    66.6105975128 R2
Au      2.497400    4.325600    66.6105975128 R2
Au      7.492200    4.325600    66.6105975128 R2
Au      4.994800    5.767500    66.6105975128 R2
Au      9.989600    5.767500    66.6105975128 R2
Au      7.492200    7.209400    66.6105975128 R2
Au      12.487000    7.209400    66.6105975128 R2
Au      1.664900    0.000000    68.96519101279999 R3
Au      6.659800    0.000000    68.96519101279999 R3
Au      4.162300    1.441900    68.96519101279999 R3
Au      9.157200    1.441900    68.96519101279999 R3
Au      6.659800    2.883800    68.96519101279999 R3
Au      11.654600    2.883800    68.96519101279999 R3
Au      4.162300    4.325600    68.96519101279999 R3
Au      9.157200    4.325600    68.96519101279999 R3
Au      6.659800    5.767500    68.96519101279999 R3
Au      11.654600    5.767500    68.96519101279999 R3
Au      9.157200    7.209400    68.96519101279999 R3
Au      14.152000    7.209400    68.96519101279999 R3
Au      3.329900    0.000000    71.3197905128 R3
Au      8.324700    0.000000    71.3197905128 R3
Au      5.827300    1.441900    71.3197905128 R3
Au      10.822100    1.441900    71.3197905128 R3
Au      8.324700    2.883800    71.3197905128 R3
Au      13.319500    2.883800    71.3197905128 R3
Au      5.827300    4.325600    71.3197905128 R3
Au      10.822100    4.325600    71.3197905128 R3
Au      8.324700    5.767500    71.3197905128 R3
Au      13.319500    5.767500    71.3197905128 R3
Au      10.822100    7.209400    71.3197905128 R3
Au      15.816900    7.209400    71.3197905128 R3
Au      0.000000    0.000000    73.6743975128 R3
Au      4.994800    0.000000    73.6743975128 R3
Au      2.497400    1.441900    73.6743975128 R3
Au      7.492200    1.441900    73.6743975128 R3
Au      4.994800    2.883800    73.6743975128 R3
Au      9.989600    2.883800    73.6743975128 R3
Au      2.497400    4.325600    73.6743975128 R3
Au      7.492200    4.325600    73.6743975128 R3
Au      4.994800    5.767500    73.6743975128 R3
Au      9.989600    5.767500    73.6743975128 R3
Au      7.492200    7.209400    73.6743975128 R3
Au      12.487000    7.209400    73.6743975128 R3