     100
 i =      371, E =     -1424.2271792639
 Au         1.6649000000        0.0000000000        0.0000000000
 Au         6.6598000000        0.0000000000        0.0000000000
 Au         4.1623000000        1.4419000000        0.0000000000
 Au         9.1572000000        1.4419000000        0.0000000000
 Au         6.6598000000        2.8838000000        0.0000000000
 Au        11.6546000000        2.8838000000        0.0000000000
 Au         4.1623000000        4.3256000000        0.0000000000
 Au         9.1572000000        4.3256000000        0.0000000000
 Au         6.6598000000        5.7675000000        0.0000000000
 Au        11.6546000000        5.7675000000        0.0000000000
 Au         9.1572000000        7.2094000000        0.0000000000
 Au        14.1520000000        7.2094000000        0.0000000000
 Au         3.3299000000        0.0000000000        2.3546000000
 Au         8.3247000000        0.0000000000        2.3546000000
 Au         5.8273000000        1.4419000000        2.3546000000
 Au        10.8221000000        1.4419000000        2.3546000000
 Au         8.3247000000        2.8838000000        2.3546000000
 Au        13.3195000000        2.8838000000        2.3546000000
 Au         5.8273000000        4.3256000000        2.3546000000
 Au        10.8221000000        4.3256000000        2.3546000000
 Au         8.3247000000        5.7675000000        2.3546000000
 Au        13.3195000000        5.7675000000        2.3546000000
 Au        10.8221000000        7.2094000000        2.3546000000
 Au        15.8169000000        7.2094000000        2.3546000000
 Au         0.0000000000        0.0000000000        4.7091000000
 Au         4.9948000000        0.0000000000        4.7091000000
 Au         2.4974000000        1.4419000000        4.7091000000
 Au         7.4922000000        1.4419000000        4.7091000000
 Au         4.9948000000        2.8838000000        4.7091000000
 Au         9.9896000000        2.8838000000        4.7091000000
 Au         2.4974000000        4.3256000000        4.7091000000
 Au         7.4922000000        4.3256000000        4.7091000000
 Au         4.9948000000        5.7675000000        4.7091000000
 Au         9.9896000000        5.7675000000        4.7091000000
 Au         7.4922000000        7.2094000000        4.7091000000
 Au        12.4870000000        7.2094000000        4.7091000000
  C         8.9795086188        3.9204307732       31.5527675055
  C         8.3393504320        4.0398033758       30.3336912687
  H         8.7289800060        4.5654828215       32.3922759135
  H         9.7575568411        3.1728843919       31.7112434682
  C         8.6011876576        3.2615061876       29.2098502862
  H         7.5636598966        4.8088940445       30.2374687297
  C         7.9511835903        3.4490930661       27.8866615071
  C         8.8776089806        4.1675684820       26.8726853739
  C         8.2812921118        4.2562727265       25.4659300245
  H         9.0981791734        5.1780308141       27.2546542947
  H         9.8441791964        3.6380728883       26.8288504456
  C         9.1992716891        5.0429208238       24.5155464412
  H         8.1265358506        3.2404062459       25.0663327478
  H         7.2876643853        4.7325090772       25.5018061108
  C         8.7100444802        5.1032265035       23.0840216490
  H         9.3013403134        6.0745668700       24.8936434793
  H        10.2034883285        4.5942785935       24.5218341751
  C         9.3627794076        4.4769141721       22.0508482319
  C         8.9357771564        4.5991062926       20.6031747907
  C         9.8533350842        5.5462296670       19.8063192016
  H         8.9628717705        3.6014196649       20.1358572057
  H         7.8966443109        4.9561626209       20.5605447731
  C         9.5126497838        5.5770790626       18.3154699187
  H         9.7780579286        6.5606652527       20.2329327392
  H        10.9000939160        5.2270900386       19.9412022029
  C        10.4664656309        6.4809009203       17.5103951630
  H         9.5615804348        4.5556956644       17.9035543215
  H         8.4765821116        5.9243175519       18.1722245667
  C        10.1169673997        6.5295458326       16.0536476185
  H        10.4398489838        7.5024369083       17.9221128624
  H        11.4977322771        6.1139649011       17.6122634824
  C        10.6931657589        5.8574409041       15.0375312139
  C        10.2650027152        5.8146846517       13.6039456969
  C        11.1554332019        6.5865945214       12.6088629645
  H        10.2202061262        4.7566556431       13.2957581913
  H         9.2399872641        6.2073904632       13.5412381490
  C        10.5602679902        6.4563252826       11.2050273039
  H        11.2083143076        7.6452099120       12.9109330535
  H        12.1825595769        6.1897662440       12.6341458789
  C        11.3067407236        7.2029391543       10.0751454661
  H        10.5078639413        5.3886863091       10.9339093390
  H         9.5179401995        6.8160811354       11.2287346070
  C        10.5058949384        7.0367221363        8.8043413865
  H        11.4101041876        8.2684600513       10.3293494607
  H        12.3152215230        6.7872832373        9.9384498827
  C        10.6797265753        5.9899562218        7.9169038681
  C         9.6698113610        5.5548387528        6.9560588348
  H         8.7132563444        6.0591677206        7.1102913898
  H         9.5506200868        4.4675694344        6.9773504513
  C        10.5240709822        3.6937131042       22.2831605213
  C        11.5089354577        2.9861821721       22.3908658520
  H        12.3754325061        2.3675501286       22.4902839985
  C         7.5275991134        5.8526093195       22.8487217038
  C         6.5052793117        6.4995267012       22.7124042564
  H         5.6078928263        7.0607377915       22.5583541249
  C        11.8508262490        5.1820376546        8.0485600196
  C         9.3710050712        7.8730822875        8.6578013891
  N        12.8099686528        4.5134621621        8.1234350780
  N         8.4386329678        8.5808943429        8.5684523367
 Cl        12.0901503636        4.8464477204       15.3908643933
 Cl         8.7244826674        7.5472572405       15.6994630762
  H         7.0187303433        4.0278408311       27.9932755598
  H         7.6768280465        2.4680535807       27.4585166494
  H         9.3792838349        2.4935875087       29.2846770642