     137
 i =       37, E =     -2653.8385316613
 Au         1.6649000000        0.0000000000        0.0000000000
 Au         6.6598000000        0.0000000000        0.0000000000
 Au         4.1623000000        1.4419000000        0.0000000000
 Au         9.1572000000        1.4419000000        0.0000000000
 Au         6.6598000000        2.8838000000        0.0000000000
 Au        11.6546000000        2.8838000000        0.0000000000
 Au         4.1623000000        4.3256000000        0.0000000000
 Au         9.1572000000        4.3256000000        0.0000000000
 Au         6.6598000000        5.7675000000        0.0000000000
 Au        11.6546000000        5.7675000000        0.0000000000
 Au         9.1572000000        7.2094000000        0.0000000000
 Au        14.1520000000        7.2094000000        0.0000000000
 Au         3.3299000000        0.0000000000        2.3546000000
 Au         8.3247000000        0.0000000000        2.3546000000
 Au         5.8273000000        1.4419000000        2.3546000000
 Au        10.8221000000        1.4419000000        2.3546000000
 Au         8.3247000000        2.8838000000        2.3546000000
 Au        13.3195000000        2.8838000000        2.3546000000
 Au         5.8273000000        4.3256000000        2.3546000000
 Au        10.8221000000        4.3256000000        2.3546000000
 Au         8.3247000000        5.7675000000        2.3546000000
 Au        13.3195000000        5.7675000000        2.3546000000
 Au        10.8221000000        7.2094000000        2.3546000000
 Au        15.8169000000        7.2094000000        2.3546000000
 Au         0.0000000000        0.0000000000        4.7091000000
 Au         4.9948000000        0.0000000000        4.7091000000
 Au         2.4974000000        1.4419000000        4.7091000000
 Au         7.4922000000        1.4419000000        4.7091000000
 Au         4.9948000000        2.8838000000        4.7091000000
 Au         9.9896000000        2.8838000000        4.7091000000
 Au         2.4974000000        4.3256000000        4.7091000000
 Au         7.4922000000        4.3256000000        4.7091000000
 Au         4.9948000000        5.7675000000        4.7091000000
 Au         9.9896000000        5.7675000000        4.7091000000
 Au         7.4922000000        7.2094000000        4.7091000000
 Au        12.4870000000        7.2094000000        4.7091000000
  C         7.9142655647        4.3711981252        6.9758754138
  C         6.8386707491        4.5172546537        7.9325022888
  H         8.5502933158        5.2595180392        6.9274537209
  H         8.5074623534        3.4621738323        7.1044834073
  C         6.6137399474        3.5904982431        8.8973201553
  H         6.3255106833        5.4836025839        7.9791554478
  C         5.9384270100        3.8555040505       10.2037222374
  C         7.0279992476        4.1809623334       11.2562465854
  C         6.5304307133        4.3289820679       12.6966447684
  H         7.5328528935        5.1102102236       10.9423457738
  H         7.8027746501        3.3957017421       11.2206856348
  C         7.6635759982        4.8273363499       13.6044388874
  H         6.1508299340        3.3610874613       13.0637251310
  H         5.6818025825        5.0301187659       12.7381537167
  C         7.3370459343        4.9696924666       15.0795998339
  H         8.0000756308        5.8136176243       13.2344016742
  H         8.5371431700        4.1645633497       13.5102862551
  C         8.2901404583        4.8032125117       16.0580306707
  C         7.9891984897        5.0547007188       17.5252553725
  C         8.8292868622        4.2581176848       18.5292135792
  H         6.9185398834        4.8634411212       17.6926063851
  H         8.1306723430        6.1334645131       17.7224870257
  C         8.3988201829        4.5441327437       19.9701619415
  H         9.8943036256        4.5076653730       18.3980338765
  H         8.7402345187        3.1793492479       18.3187437865
  C         9.3385697060        3.9272787526       21.0234126978
  H         7.3766345416        4.1671603857       20.1365595168
  H         8.3593018484        5.6331368274       20.1393017393
  C         8.8372914811        4.1546163051       22.4184337232
  H        10.3403543827        4.3702430662       20.9270177919
  H         9.4405348603        2.8448144569       20.8516308024
  C         9.1517167396        5.1632016513       23.2534168761
  C         8.5974417876        5.4482956426       24.6145512655
  C         9.5843981539        5.1771321832       25.7622130475
  H         7.6927930895        4.8399229685       24.7539282006
  H         8.2815661586        6.5042221684       24.6464843401
  C         8.9712072807        5.4937428740       27.1273728055
  H        10.4956724642        5.7775972788       25.6111900189
  H         9.8953382663        4.1200637686       25.7269348793
  C         9.9576367903        5.2367779627       28.2690349645
  H         8.0692056722        4.8796359923       27.2816728296
  H         8.6351520366        6.5427857212       27.1518657473
  C         9.4179233354        5.4567424034       29.6533956580
  H        10.8498090047        5.8808795954       28.1361341231
  H        10.3490119509        4.2069180078       28.2090654428
  C        10.0388688022        4.8794553631       30.8114609165
  C         9.5833018869        5.0283841208       32.1014613405
  H         8.6953860763        5.6235027494       32.3080947923
  H        10.0967942538        4.5519510503       32.9330538237
  C         9.6193740871        4.4549653232       15.7070108675
  C        10.7726624790        4.1591437854       15.4521043458
  H        11.7803603635        3.8891270602       15.2159547953
  C         6.0234917412        5.3680495941       15.4340876640
  C         4.8916553535        5.7177327508       15.7164002537
  H         3.9084201601        6.0404183399       15.9860596030
  C        11.2209008486        4.0946987722       30.5915896278
  C         8.2843272476        6.2563481749       29.8398208350
  N        12.1877304063        3.4671811623       30.3932143717
  N         7.3275741974        6.9258142162       30.0015278059
 Cl        10.3586183716        6.3297436150       22.7188080507
 Cl         7.6298902681        2.9846042920       22.9349196840
  H         5.2383098552        4.7012948211       10.1213879200
  H         5.3623946598        2.9762218032       10.5366934014
  H         7.1313989120        2.6283455168        8.8073720480
 Au         9.5967844016        5.0535373223       36.1193376278
 Au         2.9369844016       -0.7139626777       38.4739406278
 Au         7.9318844016       -0.7139626777       38.4739406278
 Au         5.4343844016        0.7279373223       38.4739406278
 Au        10.4292844016        0.7279373223       38.4739406278
 Au         7.9318844016        2.1698373223       38.4739406278
 Au        12.9266844016        2.1698373223       38.4739406278
 Au         5.4343844016        3.6116373223       38.4739406278
 Au        10.4292844016        3.6116373223       38.4739406278
 Au         7.9318844016        5.0535373223       38.4739406278
 Au        12.9266844016        5.0535373223       38.4739406278
 Au        10.4292844016        6.4954373223       38.4739406278
 Au        15.4240844016        6.4954373223       38.4739406278
 Au         4.6019844016       -0.7139626777       40.8285426278
 Au         9.5967844016       -0.7139626777       40.8285426278
 Au         7.0993844016        0.7279373223       40.8285426278
 Au        12.0941844016        0.7279373223       40.8285426278
 Au         9.5967844016        2.1698373223       40.8285426278
 Au        14.5915844016        2.1698373223       40.8285426278
 Au         7.0993844016        3.6116373223       40.8285426278
 Au        12.0941844016        3.6116373223       40.8285426278
 Au         9.5967844016        5.0535373223       40.8285426278
 Au        14.5915844016        5.0535373223       40.8285426278
 Au        12.0941844016        6.4954373223       40.8285426278
 Au        17.0889844016        6.4954373223       40.8285426278
 Au         1.2720844016       -0.7139626777       43.1829396278
 Au         6.2668844016       -0.7139626777       43.1831386278
 Au         3.7694844016        0.7279373223       43.1831386278
 Au         8.7642844016        0.7279373223       43.1831386278
 Au         6.2668844016        2.1698373223       43.1831386278
 Au        11.2616844016        2.1698373223       43.1831386278
 Au         3.7694844016        3.6116373223       43.1831386278
 Au         8.7642844016        3.6116373223       43.1831386278
 Au         6.2668844016        5.0535373223       43.1831386278
 Au        11.2616844016        5.0535373223       43.1831386278
 Au         8.7642844016        6.4954373223       43.1831386278
 Au        13.7590844016        6.4954373223       43.1831386278
Au    1.664900    0.000000    64.9760004626    R1
Au    6.659800    0.000000    64.9760004626    R1
Au    4.162300    1.441900    64.9760004626    R1
Au    9.157200    1.441900    64.9760004626    R1
Au    6.659800    2.883800    64.9760004626    R1
Au    11.654600    2.883800    64.9760004626    R1
Au    4.162300    4.325600    64.9760004626    R1
Au    9.157200    4.325600    64.9760004626    R1
Au    6.659800    5.767500    64.9760004626    R1
Au    11.654600    5.767500    64.9760004626    R1
Au    9.157200    7.209400    64.9760004626    R1
Au    14.152000    7.209400    64.9760004626    R1
Au    3.329900    0.000000    67.33059946259999    R1
Au    8.324700    0.000000    67.33059946259999    R1
Au    5.827300    1.441900    67.33059946259999    R1
Au    10.822100    1.441900    67.33059946259999    R1
Au    8.324700    2.883800    67.33059946259999    R1
Au    13.319500    2.883800    67.33059946259999    R1
Au    5.827300    4.325600    67.33059946259999    R1
Au    10.822100    4.325600    67.33059946259999    R1
Au    8.324700    5.767500    67.33059946259999    R1
Au    13.319500    5.767500    67.33059946259999    R1
Au    10.822100    7.209400    67.33059946259999    R1
Au    15.816900    7.209400    67.33059946259999    R1
Au    0.000000    0.000000    69.68519446260001    R1
Au    4.994800    0.000000    69.68519446260001    R1
Au    2.497400    1.441900    69.68519446260001    R1
Au    7.492200    1.441900    69.68519446260001    R1
Au    4.994800    2.883800    69.68519446260001    R1
Au    9.989600    2.883800    69.68519446260001    R1
Au    2.497400    4.325600    69.68519446260001    R1
Au    7.492200    4.325600    69.68519446260001    R1
Au    4.994800    5.767500    69.68519446260001    R1
Au    9.989600    5.767500    69.68519446260001    R1
Au    7.492200    7.209400    69.68519446260001    R1
Au    12.487000    7.209400    69.68519446260001    R1
Au    1.664900    0.000000    72.0397992626    R2
Au    6.659800    0.000000    72.0397992626    R2
Au    4.162300    1.441900    72.0397992626    R2
Au    9.157200    1.441900    72.0397992626    R2
Au    6.659800    2.883800    72.0397992626    R2
Au    11.654600    2.883800    72.0397992626    R2
Au    4.162300    4.325600    72.0397992626    R2
Au    9.157200    4.325600    72.0397992626    R2
Au    6.659800    5.767500    72.0397992626    R2
Au    11.654600    5.767500    72.0397992626    R2
Au    9.157200    7.209400    72.0397992626    R2
Au    14.152000    7.209400    72.0397992626    R2
Au    3.329900    0.000000    74.39439876259999    R2
Au    8.324700    0.000000    74.39439876259999    R2
Au    5.827300    1.441900    74.39439876259999    R2
Au    10.822100    1.441900    74.39439876259999    R2
Au    8.324700    2.883800    74.39439876259999    R2
Au    13.319500    2.883800    74.39439876259999    R2
Au    5.827300    4.325600    74.39439876259999    R2
Au    10.822100    4.325600    74.39439876259999    R2
Au    8.324700    5.767500    74.39439876259999    R2
Au    13.319500    5.767500    74.39439876259999    R2
Au    10.822100    7.209400    74.39439876259999    R2
Au    15.816900    7.209400    74.39439876259999    R2
Au    0.000000    0.000000    76.7490057626    R2
Au    4.994800    0.000000    76.7490057626    R2
Au    2.497400    1.441900    76.7490057626    R2
Au    7.492200    1.441900    76.7490057626    R2
Au    4.994800    2.883800    76.7490057626    R2
Au    9.989600    2.883800    76.7490057626    R2
Au    2.497400    4.325600    76.7490057626    R2
Au    7.492200    4.325600    76.7490057626    R2
Au    4.994800    5.767500    76.7490057626    R2
Au    9.989600    5.767500    76.7490057626    R2
Au    7.492200    7.209400    76.7490057626    R2
Au    12.487000    7.209400    76.7490057626    R2
Au    1.664900    0.000000    79.1035992626    R3
Au    6.659800    0.000000    79.1035992626    R3
Au    4.162300    1.441900    79.1035992626    R3
Au    9.157200    1.441900    79.1035992626    R3
Au    6.659800    2.883800    79.1035992626    R3
Au    11.654600    2.883800    79.1035992626    R3
Au    4.162300    4.325600    79.1035992626    R3
Au    9.157200    4.325600    79.1035992626    R3
Au    6.659800    5.767500    79.1035992626    R3
Au    11.654600    5.767500    79.1035992626    R3
Au    9.157200    7.209400    79.1035992626    R3
Au    14.152000    7.209400    79.1035992626    R3
Au    3.329900    0.000000    81.4581987626    R3
Au    8.324700    0.000000    81.4581987626    R3
Au    5.827300    1.441900    81.4581987626    R3
Au    10.822100    1.441900    81.4581987626    R3
Au    8.324700    2.883800    81.4581987626    R3
Au    13.319500    2.883800    81.4581987626    R3
Au    5.827300    4.325600    81.4581987626    R3
Au    10.822100    4.325600    81.4581987626    R3
Au    8.324700    5.767500    81.4581987626    R3
Au    13.319500    5.767500    81.4581987626    R3
Au    10.822100    7.209400    81.4581987626    R3
Au    15.816900    7.209400    81.4581987626    R3
Au    0.000000    0.000000    83.8128057626    R3
Au    4.994800    0.000000    83.8128057626    R3
Au    2.497400    1.441900    83.8128057626    R3
Au    7.492200    1.441900    83.8128057626    R3
Au    4.994800    2.883800    83.8128057626    R3
Au    9.989600    2.883800    83.8128057626    R3
Au    2.497400    4.325600    83.8128057626    R3
Au    7.492200    4.325600    83.8128057626    R3
Au    4.994800    5.767500    83.8128057626    R3
Au    9.989600    5.767500    83.8128057626    R3
Au    7.492200    7.209400    83.8128057626    R3
Au    12.487000    7.209400    83.8128057626    R3