64
	Energy:     172.7865536
C          0.97104       -0.87550      -18.16697
C          0.13495       -0.51074      -16.95029
H          0.82806        0.04784      -18.75875
H          0.47456       -1.65279      -18.74857
C          0.66872       -0.62124      -15.68445
H         -0.89491       -0.15410      -17.16277
C          0.21439       -0.08829      -14.20826
C          1.32559       -0.20611      -13.14878
C          1.01241        0.24847      -11.66679
H          2.00740        0.51366      -13.64438
H          1.38457       -1.32020      -13.12100
C          2.20088        0.09995      -10.64707
H          0.16698       -0.37205      -11.30747
H          0.64350        1.29695      -11.60194
C          1.79114        0.27693       -9.16867
H          2.96648        0.85166      -10.91890
H          2.59899       -0.92251      -10.75702
C          2.61577        0.22527       -8.04520
C          1.85461        0.37319       -6.73855
C          2.56751        0.34557       -5.42767
H          1.11141       -0.45734       -6.69840
H          1.32639        1.34904       -6.77475
C          1.50778        0.50032       -4.32383
H          3.28506        1.19166       -5.38643
H          3.09533       -0.62452       -5.30642
C          2.23149        0.51095       -3.01045
H          0.78186       -0.34695       -4.34538
H          0.93769        1.45305       -4.43749
C          1.35373        0.63459       -1.80590
H          2.93437        1.37337       -3.01761
H          2.79830       -0.44229       -2.92588
C          1.95768        0.64741       -0.60768
C          1.14069        0.76103        0.64764
C          2.04922        0.74073        1.85806
H          0.43225       -0.09522        0.70355
H          0.56463        1.71270        0.62829
C          1.27829        0.85275        3.15157
H          2.75771        1.59804        1.79060
H          2.61786       -0.21739        1.86204
C          2.29476        0.81107        4.29621
H          0.56437        0.00242        3.23491
H          0.71606        1.81297        3.16374
C          1.69387        0.93247        5.68030
H          3.01092        1.64795        4.16038
H          2.84553       -0.15527        4.23558
C          2.49150        0.87207        6.79187
C          1.95967        0.98832        8.17211
H          0.86593        1.12411        8.23554
H          2.25178        0.08684        8.73177
C          4.08927        0.02849       -8.03777
C          5.29442       -0.13875       -8.14678
H          6.35723       -0.28210       -8.17716
C          0.34940        0.47564       -8.94780
C         -0.84020        0.64258       -8.83590
H         -1.85615        0.78974       -8.58220
C          3.92755        0.74711        6.68384
C          0.24953        1.10729        5.80704
N          5.04416        0.64558        6.40392
N         -0.90408        1.19094        5.87796
Cl         3.74544        0.52489       -0.51804
Cl        -0.41412        0.75314       -1.95085
H         -0.20651        0.92511      -14.12387
H         -0.68850       -0.44316      -13.72792
H          1.14630       -1.61819      -15.70699
