     40
 i =       17, E =      -115.4903792267
  C         8.1180826752       10.1846912710        0.7271980655
  C         8.6938012600       11.2946408106        0.1032489505
  C         9.0287211582       11.2421509661       -1.2522809648
  C         8.7971274806       10.0843899651       -2.0107782684
  C         7.8816830385        9.0242753592       -0.0148340669
  C         8.2187464150        8.9777649363       -1.3697506925
  C         6.6518408699       10.9071105382      -10.6749955928
  H         9.4854450173       12.1118848187       -1.7305015418
  H         7.8607716599       10.2215500861        1.7865994694
  H         7.4392016657        8.1498037712        0.4647771862
  H         8.0377188394        8.0641147380       -1.9409609254
  H         8.8887720604       12.2027825942        0.6757544837
  C         7.1551547831       11.9539402508      -11.4616990474
  C         7.4799141163       11.7534983675      -12.8063009912
  C         7.3069757121       10.4959648497      -13.3897823000
  C         6.8048982941        9.4433410941      -12.6191187982
  C         6.4814149452        9.6499037567      -11.2763320979
  H         7.8650930199       12.5831901532      -13.4010649952
  H         7.2885126288       12.9417915970      -11.0145113910
  H         6.6602003107        8.4590229996      -13.0671157635
  H         6.0841023161        8.8230118499      -10.6827880549
  H         7.5568743775       10.3377681696      -14.4396567212
  C         9.1294513546       10.0388015901       -3.4831614326
  C         6.3398109009       11.1099095077       -9.2111697465
  C         7.4879203042       10.6692517336       -8.2848035446
  C         7.9642601691       10.4828791634       -4.3868817344
  H        10.0027585332       10.6799740392       -3.6846890451
  H         9.4236328324        9.0135890246       -3.7608604595
  H         5.4314676414       10.5442443540       -8.9462131477
  H         6.1127592699       12.1718424545       -9.0251347060
  C         8.3009366882       10.3864031059       -5.8772307202
  H         7.6817802230       11.5178640727       -4.1313416670
  H         7.0792921978        9.8633312442       -4.1649536403
  C         7.1599937983       10.8290385259       -6.7978916619
  H         6.2525214250       10.2466441042       -6.5610673684
  H         6.9064230580       11.8826075023       -6.5877946444
  H         9.1978183711       10.9937902042       -6.0900451195
  H         8.5783367990        9.3453368294       -6.1182971310
  H         8.3935170833       11.2477882062       -8.5328383513
  H         7.7353300562        9.6155611686       -8.4965921515
