     40
 i =       17, E =      -115.4903792267
C   3.9291862893784173   -12.412560858700225   0.8061312956688635
C   4.082931267424294   -13.654931245672962   0.18513961235053228
C   4.44161389631866   -13.72553729128023   -1.1634705727334627
C   4.654016394883682   -12.561430712022812   -1.9178613052071718
C   4.137718839975798   -11.24425783389475   0.06813144493965123
C   4.4962554268107064   -11.321214476831445   -1.2798682555617602
C   2.530542563512892   -12.563580828199447   -10.626399637922233
H   4.567102798338909   -14.701034630789273   -1.6392710079753572
H   3.6544969523172885   -12.355076803001145   1.860237655044371
H   4.027194244100236   -10.26942271698509   0.5456228963192986
H   4.664945320087587   -10.403176458700457   -1.8478107837486148
H   3.9292033603570977   -14.572804754214662   0.7546777151843186
C   2.6424777796348238   -13.721132634762302   -11.411016735873382
C   3.044290675894881   -13.649917943835312   -12.747831915525145
C   3.343590657491719   -12.413572613029466   -13.325429025773595
C   3.2352009055410957   -11.251050681089175   -12.556784012158383
C   2.8324300699777085   -11.328438133466406   -11.221803649256866
H   3.1196045347710126   -14.562459073962001   -13.341205302170483
H   2.4052590793497086   -14.69144904685856   -10.968495837059434
H   3.4605841294226165   -10.279983740479713   -13.00035170454174
H   2.7448097902014457   -10.414178015114256   -10.629897234088789
H   3.654500098186979   -12.355075983659834   -14.36928021099702
C   5.010152689506036   -12.637555628338148   -3.383399287026052
C   2.137384917577939   -12.64154402029649   -9.17016303695341
C   3.3483354318521346   -12.640060692677292   -8.2193289465036
C   3.7815752116767207   -12.63613155003048   -4.311936376609406
H   5.6007424365423315   -13.548373283300325   -3.57312505328867
H   5.656569813253534   -11.785059390477555   -3.6481923429025875
H   1.4858397410366078   -11.788737464597663   -8.918217797030092
H   1.542380176932579   -13.552316846815149   -8.996021485284391
C   4.160309731919213   -12.66628069055144   -5.7949906575316055
H   3.1430397201085047   -13.50193520887878   -4.069148694041238
H   3.171964452287371   -11.741346594955925   -4.102187432460181
C   2.955230950208369   -12.672171066718679   -6.740000602433132
H   2.311037507590372   -11.804049980731278   -6.516045907742848
H   2.337966202303478   -13.565659109254607   -6.5422385889663
H   4.785206249891383   -13.553962660254925   -5.995317568708933
H   4.795983124884779   -11.792982350567787   -6.023359164140687
H   3.9923798922026896   -13.503908384641159   -8.454499395242197
H   3.9599241338787885   -11.74425838420176   -8.418896704046302
