      238
 i =       71, E =     -1888.0436785968
 Au         0.0000000000        0.0000000000        0.0000000000 L3
 Au         2.9200000000        0.0000000000        0.0000000000 L3
 Au         5.8400000000        0.0000000000        0.0000000000 L3
 Au         1.4600000000        2.5287941680        0.0000000000 L3
 Au         4.3800000000        2.5287941680        0.0000000000 L3
 Au         7.3000000000        2.5287941680        0.0000000000 L3
 Au         2.9200000000        5.0575883360        0.0000000000 L3
 Au         5.8400000000        5.0575883360        0.0000000000 L3
 Au         8.7600000000        5.0575883360        0.0000000000 L3
 Au         1.4600000000        0.8429312920        2.3841700720 L3
 Au         4.3800000000        0.8429312920        2.3841700720 L3
 Au         7.3000000000        0.8429312920        2.3841700720 L3
 Au         2.9200000000        3.3717254600        2.3841700720 L3
 Au         5.8400000000        3.3717254600        2.3841700720 L3
 Au         8.7600000000        3.3717254600        2.3841700720 L3
 Au         4.3800000000        5.9005196280        2.3841700720 L3
 Au         7.3000000000        5.9005196280        2.3841700720 L3
 Au        10.2200000000        5.9005196280        2.3841700720 L3
 Au         0.0000000000        1.6858628760        4.7683401440 L3
 Au         2.9200000000        1.6858628760        4.7683401440 L3
 Au         5.8400000000        1.6858628760        4.7683401440 L3
 Au         1.4600000000        4.2146570440        4.7683401440 L3
 Au         4.3800000000        4.2146570440        4.7683401440 L3
 Au         7.3000000000        4.2146570440        4.7683401440 L3
 Au         2.9200000000        6.7434512120        4.7683401440 L3
 Au         5.8400000000        6.7434512120        4.7683401440 L3
 Au         8.7600000000        6.7434512120        4.7683401440 L3
 Au         0.0000000000        0.0000000000        7.1525099240 L2
 Au         2.9200000000        0.0000000000        7.1525099240 L2
 Au         5.8400000000        0.0000000000        7.1525099240 L2
 Au         1.4600000000        2.5287941680        7.1525099240 L2
 Au         4.3800000000        2.5287941680        7.1525099240 L2
 Au         7.3000000000        2.5287941680        7.1525099240 L2
 Au         2.9200000000        5.0575883360        7.1525099240 L2
 Au         5.8400000000        5.0575883360        7.1525099240 L2
 Au         8.7600000000        5.0575883360        7.1525099240 L2
 Au         1.4600000000        0.8429312920        9.5366799960 L2
 Au         4.3800000000        0.8429312920        9.5366799960 L2
 Au         7.3000000000        0.8429312920        9.5366799960 L2
 Au         2.9200000000        3.3717254600        9.5366799960 L2
 Au         5.8400000000        3.3717254600        9.5366799960 L2
 Au         8.7600000000        3.3717254600        9.5366799960 L2
 Au         4.3800000000        5.9005196280        9.5366799960 L2
 Au         7.3000000000        5.9005196280        9.5366799960 L2
 Au        10.2200000000        5.9005196280        9.5366799960 L2
 Au         0.0000000000        1.6858628760       11.9208500680 L2
 Au         2.9200000000        1.6858628760       11.9208500680 L2
 Au         5.8400000000        1.6858628760       11.9208500680 L2
 Au         1.4600000000        4.2146570440       11.9208500680 L2
 Au         4.3800000000        4.2146570440       11.9208500680 L2
 Au         7.3000000000        4.2146570440       11.9208500680 L2
 Au         2.9200000000        6.7434512120       11.9208500680 L2
 Au         5.8400000000        6.7434512120       11.9208500680 L2
 Au         8.7600000000        6.7434512120       11.9208500680 L2
 Au         0.0000000000        0.0000000000       14.3050198480 L1
 Au         2.9200000000        0.0000000000       14.3050198480 L1
 Au         5.8400000000        0.0000000000       14.3050198480 L1
 Au         1.4600000000        2.5287941680       14.3050198480 L1
 Au         4.3800000000        2.5287941680       14.3050198480 L1
 Au         7.3000000000        2.5287941680       14.3050198480 L1
 Au         2.9200000000        5.0575883360       14.3050198480 L1
 Au         5.8400000000        5.0575883360       14.3050198480 L1
 Au         8.7600000000        5.0575883360       14.3050198480 L1
 Au         1.4600000000        0.8429312920       16.6891899200 L1
 Au         4.3800000000        0.8429312920       16.6891899200 L1
 Au         7.3000000000        0.8429312920       16.6891899200 L1
 Au         2.9200000000        3.3717254600       16.6891899200 L1
 Au         5.8400000000        3.3717254600       16.6891899200 L1
 Au         8.7600000000        3.3717254600       16.6891899200 L1
 Au         4.3800000000        5.9005196280       16.6891899200 L1
 Au         7.3000000000        5.9005196280       16.6891899200 L1
 Au        10.2200000000        5.9005196280       16.6891899200 L1
 Au         0.0000000000        1.6858628760       19.0733599920 L1
 Au         2.9200000000        1.6858628760       19.0733599920 L1
 Au         5.8400000000        1.6858628760       19.0733599920 L1
 Au         1.4600000000        4.2146570440       19.0733599920 L1
 Au         4.3800000000        4.2146570440       19.0733599920 L1
 Au         7.3000000000        4.2146570440       19.0733599920 L1
 Au         2.9200000000        6.7434512120       19.0733599920 L1
 Au         5.8400000000        6.7434512120       19.0733599920 L1
 Au         8.7600000000        6.7434512120       19.0733599920 L1
Au    0.0000000000    0.0000000000    21.457530064    L0
Au    2.9200000000    0.0000000000    21.457530064    L0
Au    5.8400000000    0.0000000000    21.457530064    L0
Au    1.4600000000    2.5287941680    21.457530064    L0
Au    4.3800000000    2.5287941680    21.457530064    L0
Au    7.3000000000    2.5287941680    21.457530064    L0
Au    2.9200000000    5.0575883360    21.457530064    L0
Au    5.8400000000    5.0575883360    21.457530064    L0
Au    8.7600000000    5.0575883360    21.457530064    L0
Au    1.4600000000    0.8429312920    23.841700136    L0
Au    4.3800000000    0.8429312920    23.841700136    L0
Au    7.3000000000    0.8429312920    23.841700136    L0
Au    2.9200000000    3.3717254600    23.841700136    L0
Au    5.8400000000    3.3717254600    23.841700136    L0
Au    8.7600000000    3.3717254600    23.841700136    L0
Au    4.3800000000    5.9005196280    23.841700136    L0
Au    7.3000000000    5.9005196280    23.841700136    L0
Au    10.2200000000    5.9005196280    23.841700136    L0
Au    0.0000000000    1.6858628760    26.225870208    L0
Au    2.9200000000    1.6858628760    26.225870208    L0
Au    5.8400000000    1.6858628760    26.225870208    L0
Au    1.4600000000    4.2146570440    26.225870208    L0
Au    4.3800000000    4.2146570440    26.225870208    L0
Au    7.3000000000    4.2146570440    26.225870208    L0
Au    2.9200000000    6.7434512120    26.225870208    L0
Au    5.8400000000    6.7434512120    26.225870208    L0
Au    8.7600000000    6.7434512120    26.225870208    L0
C    3.9280766121    2.7257090087    37.3738320358    S
C    4.0757844663    3.9446657633    36.678629495500005    S
C    4.0076274010    3.9795299536    35.2879663254    S
C    3.7791458906    2.8144578164    34.5199609548    S
C    3.6573545765    1.5603390182    36.6245657216    S
C    3.5850422069    1.6107519091    35.2358941973    S
C    3.7869035552    2.8358463058    33.0388456818    S
H    4.1186289079    4.9416198270    34.7858770997    S
S    4.2139344230    2.6103630649    39.126012666899996    S
H    3.5374580943    0.6074391385    37.1398788543    S
H    3.4229397735    0.6805607996    34.689955477    S
H    4.2560668452    4.8631347021    37.237361455    S
C    4.5861637721    3.7548614134    32.3206019725    S
C    4.6685821379    3.7303466076    30.931726186200002    S
C    3.9450877677    2.7753503160    30.185596275199998    S
C    3.1023319755    1.8841393682    30.8826874983    S
C    3.0346893627    1.9154632147    32.273130560300004    S
H    5.3230937935    4.4308890190    30.4132647422    S
H    5.1979358756    4.4747943337    32.8653533945    S
H    2.5104748108    1.1583714239    30.3248332215    S
H    2.3671076216    1.2155850026    32.777517598    S
S    4.2168206040    2.6157970401    28.4353961216    S
Au    8.7600000000    6.7434512120    41.344340064    R0
Au    5.8400000000    6.7434512120    41.344340064    R0
Au    2.9200000000    6.7434512120    41.344340064    R0
Au    7.3000000000    4.2146570440    41.344340064    R0
Au    4.3800000000    4.2146570440    41.344340064    R0
Au    1.4600000000    4.2146570440    41.344340064    R0
Au    5.8400000000    1.6858628760    41.344340064    R0
Au    2.9200000000    1.6858628760    41.344340064    R0
Au    0.0000000000    1.6858628760    41.344340064    R0
Au    10.2200000000    5.9005196280    43.728510136    R0
Au    7.3000000000    5.9005196280    43.728510136    R0
Au    4.3800000000    5.9005196280    43.728510136    R0
Au    8.7600000000    3.3717254600    43.728510136    R0
Au    5.8400000000    3.3717254600    43.728510136    R0
Au    2.9200000000    3.3717254600    43.728510136    R0
Au    7.3000000000    0.8429312920    43.728510136    R0
Au    4.3800000000    0.8429312920    43.728510136    R0
Au    1.4600000000    0.8429312920    43.728510136    R0
Au    8.7600000000    5.0575883360    46.112680208    R0
Au    5.8400000000    5.0575883360    46.112680208    R0
Au    2.9200000000    5.0575883360    46.112680208    R0
Au    7.3000000000    2.5287941680    46.112680208    R0
Au    4.3800000000    2.5287941680    46.112680208    R0
Au    1.4600000000    2.5287941680    46.112680208    R0
Au    5.8400000000    0.0000000000    46.112680208    R0
Au    2.9200000000    0.0000000000    46.112680208    R0
Au    0.0000000000    0.0000000000    46.112680208    R0
Au    8.7600000000    6.7434512120    48.496850280000004    R1
Au    5.8400000000    6.7434512120    48.496850280000004    R1
Au    2.9200000000    6.7434512120    48.496850280000004    R1
Au    7.3000000000    4.2146570440    48.496850280000004    R1
Au    4.3800000000    4.2146570440    48.496850280000004    R1
Au    1.4600000000    4.2146570440    48.496850280000004    R1
Au    5.8400000000    1.6858628760    48.496850280000004    R1
Au    2.9200000000    1.6858628760    48.496850280000004    R1
Au    0.0000000000    1.6858628760    48.496850280000004    R1
Au    10.2200000000    5.9005196280    50.88102035200001    R1
Au    7.3000000000    5.9005196280    50.88102035200001    R1
Au    4.3800000000    5.9005196280    50.88102035200001    R1
Au    8.7600000000    3.3717254600    50.88102035200001    R1
Au    5.8400000000    3.3717254600    50.88102035200001    R1
Au    2.9200000000    3.3717254600    50.88102035200001    R1
Au    7.3000000000    0.8429312920    50.88102035200001    R1
Au    4.3800000000    0.8429312920    50.88102035200001    R1
Au    1.4600000000    0.8429312920    50.88102035200001    R1
Au    8.7600000000    5.0575883360    53.265190424000004    R1
Au    5.8400000000    5.0575883360    53.265190424000004    R1
Au    2.9200000000    5.0575883360    53.265190424000004    R1
Au    7.3000000000    2.5287941680    53.265190424000004    R1
Au    4.3800000000    2.5287941680    53.265190424000004    R1
Au    1.4600000000    2.5287941680    53.265190424000004    R1
Au    5.8400000000    0.0000000000    53.265190424000004    R1
Au    2.9200000000    0.0000000000    53.265190424000004    R1
Au    0.0000000000    0.0000000000    53.265190424000004    R1
Au    8.7600000000    6.7434512120    55.649360204000004    R2
Au    5.8400000000    6.7434512120    55.649360204000004    R2
Au    2.9200000000    6.7434512120    55.649360204000004    R2
Au    7.3000000000    4.2146570440    55.649360204000004    R2
Au    4.3800000000    4.2146570440    55.649360204000004    R2
Au    1.4600000000    4.2146570440    55.649360204000004    R2
Au    5.8400000000    1.6858628760    55.649360204000004    R2
Au    2.9200000000    1.6858628760    55.649360204000004    R2
Au    0.0000000000    1.6858628760    55.649360204000004    R2
Au    10.2200000000    5.9005196280    58.03353027600001    R2
Au    7.3000000000    5.9005196280    58.03353027600001    R2
Au    4.3800000000    5.9005196280    58.03353027600001    R2
Au    8.7600000000    3.3717254600    58.03353027600001    R2
Au    5.8400000000    3.3717254600    58.03353027600001    R2
Au    2.9200000000    3.3717254600    58.03353027600001    R2
Au    7.3000000000    0.8429312920    58.03353027600001    R2
Au    4.3800000000    0.8429312920    58.03353027600001    R2
Au    1.4600000000    0.8429312920    58.03353027600001    R2
Au    8.7600000000    5.0575883360    60.417700348000004    R2
Au    5.8400000000    5.0575883360    60.417700348000004    R2
Au    2.9200000000    5.0575883360    60.417700348000004    R2
Au    7.3000000000    2.5287941680    60.417700348000004    R2
Au    4.3800000000    2.5287941680    60.417700348000004    R2
Au    1.4600000000    2.5287941680    60.417700348000004    R2
Au    5.8400000000    0.0000000000    60.417700348000004    R2
Au    2.9200000000    0.0000000000    60.417700348000004    R2
Au    0.0000000000    0.0000000000    60.417700348000004    R2
Au    8.7600000000    6.7434512120    62.801870128000004    R3
Au    5.8400000000    6.7434512120    62.801870128000004    R3
Au    2.9200000000    6.7434512120    62.801870128000004    R3
Au    7.3000000000    4.2146570440    62.801870128000004    R3
Au    4.3800000000    4.2146570440    62.801870128000004    R3
Au    1.4600000000    4.2146570440    62.801870128000004    R3
Au    5.8400000000    1.6858628760    62.801870128000004    R3
Au    2.9200000000    1.6858628760    62.801870128000004    R3
Au    0.0000000000    1.6858628760    62.801870128000004    R3
Au    10.2200000000    5.9005196280    65.18604020000001    R3
Au    7.3000000000    5.9005196280    65.18604020000001    R3
Au    4.3800000000    5.9005196280    65.18604020000001    R3
Au    8.7600000000    3.3717254600    65.18604020000001    R3
Au    5.8400000000    3.3717254600    65.18604020000001    R3
Au    2.9200000000    3.3717254600    65.18604020000001    R3
Au    7.3000000000    0.8429312920    65.18604020000001    R3
Au    4.3800000000    0.8429312920    65.18604020000001    R3
Au    1.4600000000    0.8429312920    65.18604020000001    R3
Au    8.7600000000    5.0575883360    67.570210272    R3
Au    5.8400000000    5.0575883360    67.570210272    R3
Au    2.9200000000    5.0575883360    67.570210272    R3
Au    7.3000000000    2.5287941680    67.570210272    R3
Au    4.3800000000    2.5287941680    67.570210272    R3
Au    1.4600000000    2.5287941680    67.570210272    R3
Au    5.8400000000    0.0000000000    67.570210272    R3
Au    2.9200000000    0.0000000000    67.570210272    R3
Au    0.0000000000    0.0000000000    67.570210272    R3
