      76
 i =       88, E =     -1888.0315093899
 Au         0.0000000000        0.0000000000        0.0000000000
 Au         2.9200000000        0.0000000000        0.0000000000
 Au         5.8400000000        0.0000000000        0.0000000000
 Au         1.4600000000        2.5287941680        0.0000000000
 Au         4.3800000000        2.5287941680        0.0000000000
 Au         7.3000000000        2.5287941680        0.0000000000
 Au         2.9200000000        5.0575883360        0.0000000000
 Au         5.8400000000        5.0575883360        0.0000000000
 Au         8.7600000000        5.0575883360        0.0000000000
 Au         1.4600000000        0.8429312920        2.3841700720
 Au         4.3800000000        0.8429312920        2.3841700720
 Au         7.3000000000        0.8429312920        2.3841700720
 Au         2.9200000000        3.3717254600        2.3841700720
 Au         5.8400000000        3.3717254600        2.3841700720
 Au         8.7600000000        3.3717254600        2.3841700720
 Au         4.3800000000        5.9005196280        2.3841700720
 Au         7.3000000000        5.9005196280        2.3841700720
 Au        10.2200000000        5.9005196280        2.3841700720
 Au         0.0000000000        1.6858628760        4.7683401440
 Au         2.9200000000        1.6858628760        4.7683401440
 Au         5.8400000000        1.6858628760        4.7683401440
 Au         1.4600000000        4.2146570440        4.7683401440
 Au         4.3800000000        4.2146570440        4.7683401440
 Au         7.3000000000        4.2146570440        4.7683401440
 Au         2.9200000000        6.7434512120        4.7683401440
 Au         5.8400000000        6.7434512120        4.7683401440
 Au         8.7600000000        6.7434512120        4.7683401440
  C         4.0974639066        2.6612828034       16.3170633065
  C         4.2339108256        3.8675120098       15.5778616103
  C         4.2078487447        3.8723390332       14.1892155399
  C         4.0297049594        2.6860935268       13.4267081217
  C         3.9025113852        1.4711866550       15.5641822038
  C         3.8679785800        1.4894354719       14.1764245864
  C         4.0264823928        2.6915133541       11.9514616229
  H         4.3000434737        4.8309780772       13.6777185899
  S         4.2201343957        2.6228646239       18.0702051172
  H         3.7980293163        0.5242104435       16.0941350015
  H         3.7517849595        0.5395383426       13.6537577561
  H         4.3621616658        4.8053428940       16.1187775153
  C         4.6287908677        3.7358687749       11.1990798800
  C         4.6604523070        3.7297231451        9.8109126316
  C         4.0805232014        2.6709212915        9.0614704868
  C         3.4491541906        1.6361199763        9.8028474834
  C         3.4335277165        1.6471230874       11.1913492624
  H         5.1561913799        4.5413998942        9.2781864527
  H         5.1206471685        4.5576933476       11.7201367421
  H         2.9718890719        0.8177176686        9.2635480058
  H         2.9218634254        0.8330499373       11.7055382821
  S         4.1991128433        2.6139954791        7.3075952139
 Au         8.7600000000        6.7434512120       20.6368044047
 Au         5.8400000000        6.7434512120       20.6368044047
 Au         2.9200000000        6.7434512120       20.6368044047
 Au         7.3000000000        4.2146570440       20.6368044047
 Au         4.3800000000        4.2146570440       20.6368044047
 Au         1.4600000000        4.2146570440       20.6368044047
 Au         5.8400000000        1.6858628760       20.6368044047
 Au         2.9200000000        1.6858628760       20.6368044047
 Au         0.0000000000        1.6858628760       20.6368044047
 Au        10.2200000000        5.9005196280       23.0209744767
 Au         7.3000000000        5.9005196280       23.0209744767
 Au         4.3800000000        5.9005196280       23.0209744767
 Au         8.7600000000        3.3717254600       23.0209744767
 Au         5.8400000000        3.3717254600       23.0209744767
 Au         2.9200000000        3.3717254600       23.0209744767
 Au         7.3000000000        0.8429312920       23.0209744767
 Au         4.3800000000        0.8429312920       23.0209744767
 Au         1.4600000000        0.8429312920       23.0209744767
 Au         8.7600000000        5.0575883360       25.4051445487
 Au         5.8400000000        5.0575883360       25.4051445487
 Au         2.9200000000        5.0575883360       25.4051445487
 Au         7.3000000000        2.5287941680       25.4051445487
 Au         4.3800000000        2.5287941680       25.4051445487
 Au         1.4600000000        2.5287941680       25.4051445487
 Au         5.8400000000        0.0000000000       25.4051445487
 Au         2.9200000000        0.0000000000       25.4051445487
 Au         0.0000000000        0.0000000000       25.4051445487
Au    8.7600000000    6.7434512120    48.496850280000004    R1
Au    5.8400000000    6.7434512120    48.496850280000004    R1
Au    2.9200000000    6.7434512120    48.496850280000004    R1
Au    7.3000000000    4.2146570440    48.496850280000004    R1
Au    4.3800000000    4.2146570440    48.496850280000004    R1
Au    1.4600000000    4.2146570440    48.496850280000004    R1
Au    5.8400000000    1.6858628760    48.496850280000004    R1
Au    2.9200000000    1.6858628760    48.496850280000004    R1
Au    0.0000000000    1.6858628760    48.496850280000004    R1
Au    10.2200000000    5.9005196280    50.88102035200001    R1
Au    7.3000000000    5.9005196280    50.88102035200001    R1
Au    4.3800000000    5.9005196280    50.88102035200001    R1
Au    8.7600000000    3.3717254600    50.88102035200001    R1
Au    5.8400000000    3.3717254600    50.88102035200001    R1
Au    2.9200000000    3.3717254600    50.88102035200001    R1
Au    7.3000000000    0.8429312920    50.88102035200001    R1
Au    4.3800000000    0.8429312920    50.88102035200001    R1
Au    1.4600000000    0.8429312920    50.88102035200001    R1
Au    8.7600000000    5.0575883360    53.265190424000004    R1
Au    5.8400000000    5.0575883360    53.265190424000004    R1
Au    2.9200000000    5.0575883360    53.265190424000004    R1
Au    7.3000000000    2.5287941680    53.265190424000004    R1
Au    4.3800000000    2.5287941680    53.265190424000004    R1
Au    1.4600000000    2.5287941680    53.265190424000004    R1
Au    5.8400000000    0.0000000000    53.265190424000004    R1
Au    2.9200000000    0.0000000000    53.265190424000004    R1
Au    0.0000000000    0.0000000000    53.265190424000004    R1
Au    8.7600000000    6.7434512120    55.649360204000004    R2
Au    5.8400000000    6.7434512120    55.649360204000004    R2
Au    2.9200000000    6.7434512120    55.649360204000004    R2
Au    7.3000000000    4.2146570440    55.649360204000004    R2
Au    4.3800000000    4.2146570440    55.649360204000004    R2
Au    1.4600000000    4.2146570440    55.649360204000004    R2
Au    5.8400000000    1.6858628760    55.649360204000004    R2
Au    2.9200000000    1.6858628760    55.649360204000004    R2
Au    0.0000000000    1.6858628760    55.649360204000004    R2
Au    10.2200000000    5.9005196280    58.03353027600001    R2
Au    7.3000000000    5.9005196280    58.03353027600001    R2
Au    4.3800000000    5.9005196280    58.03353027600001    R2
Au    8.7600000000    3.3717254600    58.03353027600001    R2
Au    5.8400000000    3.3717254600    58.03353027600001    R2
Au    2.9200000000    3.3717254600    58.03353027600001    R2
Au    7.3000000000    0.8429312920    58.03353027600001    R2
Au    4.3800000000    0.8429312920    58.03353027600001    R2
Au    1.4600000000    0.8429312920    58.03353027600001    R2
Au    8.7600000000    5.0575883360    60.417700348000004    R2
Au    5.8400000000    5.0575883360    60.417700348000004    R2
Au    2.9200000000    5.0575883360    60.417700348000004    R2
Au    7.3000000000    2.5287941680    60.417700348000004    R2
Au    4.3800000000    2.5287941680    60.417700348000004    R2
Au    1.4600000000    2.5287941680    60.417700348000004    R2
Au    5.8400000000    0.0000000000    60.417700348000004    R2
Au    2.9200000000    0.0000000000    60.417700348000004    R2
Au    0.0000000000    0.0000000000    60.417700348000004    R2
Au    8.7600000000    6.7434512120    62.801870128000004    R3
Au    5.8400000000    6.7434512120    62.801870128000004    R3
Au    2.9200000000    6.7434512120    62.801870128000004    R3
Au    7.3000000000    4.2146570440    62.801870128000004    R3
Au    4.3800000000    4.2146570440    62.801870128000004    R3
Au    1.4600000000    4.2146570440    62.801870128000004    R3
Au    5.8400000000    1.6858628760    62.801870128000004    R3
Au    2.9200000000    1.6858628760    62.801870128000004    R3
Au    0.0000000000    1.6858628760    62.801870128000004    R3
Au    10.2200000000    5.9005196280    65.18604020000001    R3
Au    7.3000000000    5.9005196280    65.18604020000001    R3
Au    4.3800000000    5.9005196280    65.18604020000001    R3
Au    8.7600000000    3.3717254600    65.18604020000001    R3
Au    5.8400000000    3.3717254600    65.18604020000001    R3
Au    2.9200000000    3.3717254600    65.18604020000001    R3
Au    7.3000000000    0.8429312920    65.18604020000001    R3
Au    4.3800000000    0.8429312920    65.18604020000001    R3
Au    1.4600000000    0.8429312920    65.18604020000001    R3
Au    8.7600000000    5.0575883360    67.570210272    R3
Au    5.8400000000    5.0575883360    67.570210272    R3
Au    2.9200000000    5.0575883360    67.570210272    R3
Au    7.3000000000    2.5287941680    67.570210272    R3
Au    4.3800000000    2.5287941680    67.570210272    R3
Au    1.4600000000    2.5287941680    67.570210272    R3
Au    5.8400000000    0.0000000000    67.570210272    R3
Au    2.9200000000    0.0000000000    67.570210272    R3
Au    0.0000000000    0.0000000000    67.570210272    R3
