      76
 i =       71, E =     -1888.0436785968
 Au         0.0000000000        0.0000000000        0.0000000000
 Au         2.9200000000        0.0000000000        0.0000000000
 Au         5.8400000000        0.0000000000        0.0000000000
 Au         1.4600000000        2.5287941680        0.0000000000
 Au         4.3800000000        2.5287941680        0.0000000000
 Au         7.3000000000        2.5287941680        0.0000000000
 Au         2.9200000000        5.0575883360        0.0000000000
 Au         5.8400000000        5.0575883360        0.0000000000
 Au         8.7600000000        5.0575883360        0.0000000000
 Au         1.4600000000        0.8429312920        2.3841700720
 Au         4.3800000000        0.8429312920        2.3841700720
 Au         7.3000000000        0.8429312920        2.3841700720
 Au         2.9200000000        3.3717254600        2.3841700720
 Au         5.8400000000        3.3717254600        2.3841700720
 Au         8.7600000000        3.3717254600        2.3841700720
 Au         4.3800000000        5.9005196280        2.3841700720
 Au         7.3000000000        5.9005196280        2.3841700720
 Au        10.2200000000        5.9005196280        2.3841700720
 Au         0.0000000000        1.6858628760        4.7683401440
 Au         2.9200000000        1.6858628760        4.7683401440
 Au         5.8400000000        1.6858628760        4.7683401440
 Au         1.4600000000        4.2146570440        4.7683401440
 Au         4.3800000000        4.2146570440        4.7683401440
 Au         7.3000000000        4.2146570440        4.7683401440
 Au         2.9200000000        6.7434512120        4.7683401440
 Au         5.8400000000        6.7434512120        4.7683401440
 Au         8.7600000000        6.7434512120        4.7683401440
  C         3.9280766121        2.7257090087       15.9163019718
  C         4.0757844663        3.9446657633       15.2210994315
  C         4.0076274010        3.9795299536       13.8304362614
  C         3.7791458906        2.8144578164       13.0624308908
  C         3.6573545765        1.5603390182       15.1670356576
  C         3.5850422069        1.6107519091       13.7783641333
  C         3.7869035552        2.8358463058       11.5813156178
  H         4.1186289079        4.9416198270       13.3283470357
  S         4.2139344230        2.6103630649       17.6684826029
  H         3.5374580943        0.6074391385       15.6823487903
  H         3.4229397735        0.6805607996       13.2324254130
  H         4.2560668452        4.8631347021       15.7798313910
  C         4.5861637721        3.7548614134       10.8630719085
  C         4.6685821379        3.7303466076        9.4741961222
  C         3.9450877677        2.7753503160        8.7280662112
  C         3.1023319755        1.8841393682        9.4251574343
  C         3.0346893627        1.9154632147       10.8156004963
  H         5.3230937935        4.4308890190        8.9557346782
  H         5.1979358756        4.4747943337       11.4078233305
  H         2.5104748108        1.1583714239        8.8673031575
  H         2.3671076216        1.2155850026       11.3199875340
  S         4.2168206040        2.6157970401        6.9778660576
 Au         8.7600000000        6.7434512120       19.8868100000
 Au         5.8400000000        6.7434512120       19.8868100000
 Au         2.9200000000        6.7434512120       19.8868100000
 Au         7.3000000000        4.2146570440       19.8868100000
 Au         4.3800000000        4.2146570440       19.8868100000
 Au         1.4600000000        4.2146570440       19.8868100000
 Au         5.8400000000        1.6858628760       19.8868100000
 Au         2.9200000000        1.6858628760       19.8868100000
 Au         0.0000000000        1.6858628760       19.8868100000
 Au        10.2200000000        5.9005196280       22.2709800720
 Au         7.3000000000        5.9005196280       22.2709800720
 Au         4.3800000000        5.9005196280       22.2709800720
 Au         8.7600000000        3.3717254600       22.2709800720
 Au         5.8400000000        3.3717254600       22.2709800720
 Au         2.9200000000        3.3717254600       22.2709800720
 Au         7.3000000000        0.8429312920       22.2709800720
 Au         4.3800000000        0.8429312920       22.2709800720
 Au         1.4600000000        0.8429312920       22.2709800720
 Au         8.7600000000        5.0575883360       24.6551501440
 Au         5.8400000000        5.0575883360       24.6551501440
 Au         2.9200000000        5.0575883360       24.6551501440
 Au         7.3000000000        2.5287941680       24.6551501440
 Au         4.3800000000        2.5287941680       24.6551501440
 Au         1.4600000000        2.5287941680       24.6551501440
 Au         5.8400000000        0.0000000000       24.6551501440
 Au         2.9200000000        0.0000000000       24.6551501440
 Au         0.0000000000        0.0000000000       24.6551501440
 Au         8.7600000000        6.7434512120       43.0553494000 R1
 Au         5.8400000000        6.7434512120       43.0553494000 R1
 Au         2.9200000000        6.7434512120       43.0553494000 R1
 Au         7.3000000000        4.2146570440       43.0553494000 R1
 Au         4.3800000000        4.2146570440       43.0553494000 R1
 Au         1.4600000000        4.2146570440       43.0553494000 R1
 Au         5.8400000000        1.6858628760       43.0553494000 R1
 Au         2.9200000000        1.6858628760       43.0553494000 R1
 Au         0.0000000000        1.6858628760       43.0553494000 R1
 Au        10.2200000000        5.9005196280       45.4395194720 R1
 Au         7.3000000000        5.9005196280       45.4395194720 R1
 Au         4.3800000000        5.9005196280       45.4395194720 R1
 Au         8.7600000000        3.3717254600       45.4395194720 R1
 Au         5.8400000000        3.3717254600       45.4395194720 R1
 Au         2.9200000000        3.3717254600       45.4395194720 R1
 Au         7.3000000000        0.8429312920       45.4395194720 R1
 Au         4.3800000000        0.8429312920       45.4395194720 R1
 Au         1.4600000000        0.8429312920       45.4395194720 R1
 Au         8.7600000000        5.0575883360       47.8236895440 R1
 Au         5.8400000000        5.0575883360       47.8236895440 R1
 Au         2.9200000000        5.0575883360       47.8236895440 R1
 Au         7.3000000000        2.5287941680       47.8236895440 R1
 Au         4.3800000000        2.5287941680       47.8236895440 R1
 Au         1.4600000000        2.5287941680       47.8236895440 R1
 Au         5.8400000000        0.0000000000       47.8236895440 R1
 Au         2.9200000000        0.0000000000       47.8236895440 R1
 Au         0.0000000000        0.0000000000       47.8236895440 R1
 Au         8.7600000000        6.7434512120       50.2078593240 R2
 Au         5.8400000000        6.7434512120       50.2078593240 R2
 Au         2.9200000000        6.7434512120       50.2078593240 R2
 Au         7.3000000000        4.2146570440       50.2078593240 R2
 Au         4.3800000000        4.2146570440       50.2078593240 R2
 Au         1.4600000000        4.2146570440       50.2078593240 R2
 Au         5.8400000000        1.6858628760       50.2078593240 R2
 Au         2.9200000000        1.6858628760       50.2078593240 R2
 Au         0.0000000000        1.6858628760       50.2078593240 R2
 Au        10.2200000000        5.9005196280       52.5920293960 R2
 Au         7.3000000000        5.9005196280       52.5920293960 R2
 Au         4.3800000000        5.9005196280       52.5920293960 R2
 Au         8.7600000000        3.3717254600       52.5920293960 R2
 Au         5.8400000000        3.3717254600       52.5920293960 R2
 Au         2.9200000000        3.3717254600       52.5920293960 R2
 Au         7.3000000000        0.8429312920       52.5920293960 R2
 Au         4.3800000000        0.8429312920       52.5920293960 R2
 Au         1.4600000000        0.8429312920       52.5920293960 R2
 Au         8.7600000000        5.0575883360       54.9761994680 R2
 Au         5.8400000000        5.0575883360       54.9761994680 R2
 Au         2.9200000000        5.0575883360       54.9761994680 R2
 Au         7.3000000000        2.5287941680       54.9761994680 R2
 Au         4.3800000000        2.5287941680       54.9761994680 R2
 Au         1.4600000000        2.5287941680       54.9761994680 R2
 Au         5.8400000000        0.0000000000       54.9761994680 R2
 Au         2.9200000000        0.0000000000       54.9761994680 R2
 Au         0.0000000000        0.0000000000       54.9761994680 R2
 Au         8.7600000000        6.7434512120       57.3603692480 R3
 Au         5.8400000000        6.7434512120       57.3603692480 R3
 Au         2.9200000000        6.7434512120       57.3603692480 R3
 Au         7.3000000000        4.2146570440       57.3603692480 R3
 Au         4.3800000000        4.2146570440       57.3603692480 R3
 Au         1.4600000000        4.2146570440       57.3603692480 R3
 Au         5.8400000000        1.6858628760       57.3603692480 R3
 Au         2.9200000000        1.6858628760       57.3603692480 R3
 Au         0.0000000000        1.6858628760       57.3603692480 R3
 Au        10.2200000000        5.9005196280       59.7445393200 R3
 Au         7.3000000000        5.9005196280       59.7445393200 R3
 Au         4.3800000000        5.9005196280       59.7445393200 R3
 Au         8.7600000000        3.3717254600       59.7445393200 R3
 Au         5.8400000000        3.3717254600       59.7445393200 R3
 Au         2.9200000000        3.3717254600       59.7445393200 R3
 Au         7.3000000000        0.8429312920       59.7445393200 R3
 Au         4.3800000000        0.8429312920       59.7445393200 R3
 Au         1.4600000000        0.8429312920       59.7445393200 R3
 Au         8.7600000000        5.0575883360       62.1287093920 R3
 Au         5.8400000000        5.0575883360       62.1287093920 R3
 Au         2.9200000000        5.0575883360       62.1287093920 R3
 Au         7.3000000000        2.5287941680       62.1287093920 R3
 Au         4.3800000000        2.5287941680       62.1287093920 R3
 Au         1.4600000000        2.5287941680       62.1287093920 R3
 Au         5.8400000000        0.0000000000       62.1287093920 R3
 Au         2.9200000000        0.0000000000       62.1287093920 R3
 Au         0.0000000000        0.0000000000       62.1287093920 R3