     238
 i =       71, E =     -1888.0436785968
 Au         0.0000000000        0.0000000000        0.0000000000 L3
 Au         2.9200000000        0.0000000000        0.0000000000 L3
 Au         5.8400000000        0.0000000000        0.0000000000 L3
 Au         1.4600000000        2.5287941680        0.0000000000 L3
 Au         4.3800000000        2.5287941680        0.0000000000 L3
 Au         7.3000000000        2.5287941680        0.0000000000 L3
 Au         2.9200000000        5.0575883360        0.0000000000 L3
 Au         5.8400000000        5.0575883360        0.0000000000 L3
 Au         8.7600000000        5.0575883360        0.0000000000 L3
 Au         1.4600000000        0.8429312920        2.3841700720 L3
 Au         4.3800000000        0.8429312920        2.3841700720 L3
 Au         7.3000000000        0.8429312920        2.3841700720 L3
 Au         2.9200000000        3.3717254600        2.3841700720 L3
 Au         5.8400000000        3.3717254600        2.3841700720 L3
 Au         8.7600000000        3.3717254600        2.3841700720 L3
 Au         4.3800000000        5.9005196280        2.3841700720 L3
 Au         7.3000000000        5.9005196280        2.3841700720 L3
 Au        10.2200000000        5.9005196280        2.3841700720 L3
 Au         0.0000000000        1.6858628760        4.7683401440 L3
 Au         2.9200000000        1.6858628760        4.7683401440 L3
 Au         5.8400000000        1.6858628760        4.7683401440 L3
 Au         1.4600000000        4.2146570440        4.7683401440 L3
 Au         4.3800000000        4.2146570440        4.7683401440 L3
 Au         7.3000000000        4.2146570440        4.7683401440 L3
 Au         2.9200000000        6.7434512120        4.7683401440 L3
 Au         5.8400000000        6.7434512120        4.7683401440 L3
 Au         8.7600000000        6.7434512120        4.7683401440 L3
 Au         0.0000000000        0.0000000000        7.1525099240 L2
 Au         2.9200000000        0.0000000000        7.1525099240 L2
 Au         5.8400000000        0.0000000000        7.1525099240 L2
 Au         1.4600000000        2.5287941680        7.1525099240 L2
 Au         4.3800000000        2.5287941680        7.1525099240 L2
 Au         7.3000000000        2.5287941680        7.1525099240 L2
 Au         2.9200000000        5.0575883360        7.1525099240 L2
 Au         5.8400000000        5.0575883360        7.1525099240 L2
 Au         8.7600000000        5.0575883360        7.1525099240 L2
 Au         1.4600000000        0.8429312920        9.5366799960 L2
 Au         4.3800000000        0.8429312920        9.5366799960 L2
 Au         7.3000000000        0.8429312920        9.5366799960 L2
 Au         2.9200000000        3.3717254600        9.5366799960 L2
 Au         5.8400000000        3.3717254600        9.5366799960 L2
 Au         8.7600000000        3.3717254600        9.5366799960 L2
 Au         4.3800000000        5.9005196280        9.5366799960 L2
 Au         7.3000000000        5.9005196280        9.5366799960 L2
 Au        10.2200000000        5.9005196280        9.5366799960 L2
 Au         0.0000000000        1.6858628760       11.9208500680 L2
 Au         2.9200000000        1.6858628760       11.9208500680 L2
 Au         5.8400000000        1.6858628760       11.9208500680 L2
 Au         1.4600000000        4.2146570440       11.9208500680 L2
 Au         4.3800000000        4.2146570440       11.9208500680 L2
 Au         7.3000000000        4.2146570440       11.9208500680 L2
 Au         2.9200000000        6.7434512120       11.9208500680 L2
 Au         5.8400000000        6.7434512120       11.9208500680 L2
 Au         8.7600000000        6.7434512120       11.9208500680 L2
 Au         0.0000000000        0.0000000000       14.3050198480 L1
 Au         2.9200000000        0.0000000000       14.3050198480 L1
 Au         5.8400000000        0.0000000000       14.3050198480 L1
 Au         1.4600000000        2.5287941680       14.3050198480 L1
 Au         4.3800000000        2.5287941680       14.3050198480 L1
 Au         7.3000000000        2.5287941680       14.3050198480 L1
 Au         2.9200000000        5.0575883360       14.3050198480 L1
 Au         5.8400000000        5.0575883360       14.3050198480 L1
 Au         8.7600000000        5.0575883360       14.3050198480 L1
 Au         1.4600000000        0.8429312920       16.6891899200 L1
 Au         4.3800000000        0.8429312920       16.6891899200 L1
 Au         7.3000000000        0.8429312920       16.6891899200 L1
 Au         2.9200000000        3.3717254600       16.6891899200 L1
 Au         5.8400000000        3.3717254600       16.6891899200 L1
 Au         8.7600000000        3.3717254600       16.6891899200 L1
 Au         4.3800000000        5.9005196280       16.6891899200 L1
 Au         7.3000000000        5.9005196280       16.6891899200 L1
 Au        10.2200000000        5.9005196280       16.6891899200 L1
 Au         0.0000000000        1.6858628760       19.0733599920 L1
 Au         2.9200000000        1.6858628760       19.0733599920 L1
 Au         5.8400000000        1.6858628760       19.0733599920 L1
 Au         1.4600000000        4.2146570440       19.0733599920 L1
 Au         4.3800000000        4.2146570440       19.0733599920 L1
 Au         7.3000000000        4.2146570440       19.0733599920 L1
 Au         2.9200000000        6.7434512120       19.0733599920 L1
 Au         5.8400000000        6.7434512120       19.0733599920 L1
 Au         8.7600000000        6.7434512120       19.0733599920 L1
Au    0.0000000000    0.0000000000    21.457530064    L0
Au    2.9200000000    0.0000000000    21.457530064    L0
Au    5.8400000000    0.0000000000    21.457530064    L0
Au    1.4600000000    2.5287941680    21.457530064    L0
Au    4.3800000000    2.5287941680    21.457530064    L0
Au    7.3000000000    2.5287941680    21.457530064    L0
Au    2.9200000000    5.0575883360    21.457530064    L0
Au    5.8400000000    5.0575883360    21.457530064    L0
Au    8.7600000000    5.0575883360    21.457530064    L0
Au    1.4600000000    0.8429312920    23.841700136    L0
Au    4.3800000000    0.8429312920    23.841700136    L0
Au    7.3000000000    0.8429312920    23.841700136    L0
Au    2.9200000000    3.3717254600    23.841700136    L0
Au    5.8400000000    3.3717254600    23.841700136    L0
Au    8.7600000000    3.3717254600    23.841700136    L0
Au    4.3800000000    5.9005196280    23.841700136    L0
Au    7.3000000000    5.9005196280    23.841700136    L0
Au    10.2200000000    5.9005196280    23.841700136    L0
Au    0.0000000000    1.6858628760    26.225870208    L0
Au    2.9200000000    1.6858628760    26.225870208    L0
Au    5.8400000000    1.6858628760    26.225870208    L0
Au    1.4600000000    4.2146570440    26.225870208    L0
Au    4.3800000000    4.2146570440    26.225870208    L0
Au    7.3000000000    4.2146570440    26.225870208    L0
Au    2.9200000000    6.7434512120    26.225870208    L0
Au    5.8400000000    6.7434512120    26.225870208    L0
Au    8.7600000000    6.7434512120    26.225870208    L0
C    4.0974639066    2.6612828034    37.7745933705    S
C    4.2339108256    3.8675120098    37.0353916743    S
C    4.2078487447    3.8723390332    35.6467456039    S
C    4.0297049594    2.6860935268    34.8842381857    S
C    3.9025113852    1.4711866550    37.0217122678    S
C    3.8679785800    1.4894354719    35.6339546504    S
C    4.0264823928    2.6915133541    33.4089916869    S
H    4.3000434737    4.8309780772    35.1352486539    S
S    4.2201343957    2.6228646239    39.5277351812    S
H    3.7980293163    0.5242104435    37.5516650655    S
H    3.7517849595    0.5395383426    35.1112878201    S
H    4.3621616658    4.8053428940    37.5763075793    S
C    4.6287908677    3.7358687749    32.656609943999996    S
C    4.6604523070    3.7297231451    31.2684426956    S
C    4.0805232014    2.6709212915    30.5190005508    S
C    3.4491541906    1.6361199763    31.2603775474    S
C    3.4335277165    1.6471230874    32.6488793264    S
H    5.1561913799    4.5413998942    30.735716516700002    S
H    5.1206471685    4.5576933476    33.1776668061    S
H    2.9718890719    0.8177176686    30.7210780698    S
H    2.9218634254    0.8330499373    33.1630683461    S
S    4.1991128433    2.6139954791    28.7651252779    S
Au    8.7600000000    6.7434512120    42.0943344687    R0
Au    5.8400000000    6.7434512120    42.0943344687    R0
Au    2.9200000000    6.7434512120    42.0943344687    R0
Au    7.3000000000    4.2146570440    42.0943344687    R0
Au    4.3800000000    4.2146570440    42.0943344687    R0
Au    1.4600000000    4.2146570440    42.0943344687    R0
Au    5.8400000000    1.6858628760    42.0943344687    R0
Au    2.9200000000    1.6858628760    42.0943344687    R0
Au    0.0000000000    1.6858628760    42.0943344687    R0
Au    10.2200000000    5.9005196280    44.4785045407    R0
Au    7.3000000000    5.9005196280    44.4785045407    R0
Au    4.3800000000    5.9005196280    44.4785045407    R0
Au    8.7600000000    3.3717254600    44.4785045407    R0
Au    5.8400000000    3.3717254600    44.4785045407    R0
Au    2.9200000000    3.3717254600    44.4785045407    R0
Au    7.3000000000    0.8429312920    44.4785045407    R0
Au    4.3800000000    0.8429312920    44.4785045407    R0
Au    1.4600000000    0.8429312920    44.4785045407    R0
Au    8.7600000000    5.0575883360    46.862674612700005    R0
Au    5.8400000000    5.0575883360    46.862674612700005    R0
Au    2.9200000000    5.0575883360    46.862674612700005    R0
Au    7.3000000000    2.5287941680    46.862674612700005    R0
Au    4.3800000000    2.5287941680    46.862674612700005    R0
Au    1.4600000000    2.5287941680    46.862674612700005    R0
Au    5.8400000000    0.0000000000    46.862674612700005    R0
Au    2.9200000000    0.0000000000    46.862674612700005    R0
Au    0.0000000000    0.0000000000    46.862674612700005    R0
Au    8.7600000000    6.7434512120    49.2468446847    R1
Au    5.8400000000    6.7434512120    49.2468446847    R1
Au    2.9200000000    6.7434512120    49.2468446847    R1
Au    7.3000000000    4.2146570440    49.2468446847    R1
Au    4.3800000000    4.2146570440    49.2468446847    R1
Au    1.4600000000    4.2146570440    49.2468446847    R1
Au    5.8400000000    1.6858628760    49.2468446847    R1
Au    2.9200000000    1.6858628760    49.2468446847    R1
Au    0.0000000000    1.6858628760    49.2468446847    R1
Au    10.2200000000    5.9005196280    51.631014756700004    R1
Au    7.3000000000    5.9005196280    51.631014756700004    R1
Au    4.3800000000    5.9005196280    51.631014756700004    R1
Au    8.7600000000    3.3717254600    51.631014756700004    R1
Au    5.8400000000    3.3717254600    51.631014756700004    R1
Au    2.9200000000    3.3717254600    51.631014756700004    R1
Au    7.3000000000    0.8429312920    51.631014756700004    R1
Au    4.3800000000    0.8429312920    51.631014756700004    R1
Au    1.4600000000    0.8429312920    51.631014756700004    R1
Au    8.7600000000    5.0575883360    54.0151848287    R1
Au    5.8400000000    5.0575883360    54.0151848287    R1
Au    2.9200000000    5.0575883360    54.0151848287    R1
Au    7.3000000000    2.5287941680    54.0151848287    R1
Au    4.3800000000    2.5287941680    54.0151848287    R1
Au    1.4600000000    2.5287941680    54.0151848287    R1
Au    5.8400000000    0.0000000000    54.0151848287    R1
Au    2.9200000000    0.0000000000    54.0151848287    R1
Au    0.0000000000    0.0000000000    54.0151848287    R1
Au    8.7600000000    6.7434512120    56.3993546087    R2
Au    5.8400000000    6.7434512120    56.3993546087    R2
Au    2.9200000000    6.7434512120    56.3993546087    R2
Au    7.3000000000    4.2146570440    56.3993546087    R2
Au    4.3800000000    4.2146570440    56.3993546087    R2
Au    1.4600000000    4.2146570440    56.3993546087    R2
Au    5.8400000000    1.6858628760    56.3993546087    R2
Au    2.9200000000    1.6858628760    56.3993546087    R2
Au    0.0000000000    1.6858628760    56.3993546087    R2
Au    10.2200000000    5.9005196280    58.783524680700005    R2
Au    7.3000000000    5.9005196280    58.783524680700005    R2
Au    4.3800000000    5.9005196280    58.783524680700005    R2
Au    8.7600000000    3.3717254600    58.783524680700005    R2
Au    5.8400000000    3.3717254600    58.783524680700005    R2
Au    2.9200000000    3.3717254600    58.783524680700005    R2
Au    7.3000000000    0.8429312920    58.783524680700005    R2
Au    4.3800000000    0.8429312920    58.783524680700005    R2
Au    1.4600000000    0.8429312920    58.783524680700005    R2
Au    8.7600000000    5.0575883360    61.1676947527    R2
Au    5.8400000000    5.0575883360    61.1676947527    R2
Au    2.9200000000    5.0575883360    61.1676947527    R2
Au    7.3000000000    2.5287941680    61.1676947527    R2
Au    4.3800000000    2.5287941680    61.1676947527    R2
Au    1.4600000000    2.5287941680    61.1676947527    R2
Au    5.8400000000    0.0000000000    61.1676947527    R2
Au    2.9200000000    0.0000000000    61.1676947527    R2
Au    0.0000000000    0.0000000000    61.1676947527    R2
Au    8.7600000000    6.7434512120    63.5518645327    R3
Au    5.8400000000    6.7434512120    63.5518645327    R3
Au    2.9200000000    6.7434512120    63.5518645327    R3
Au    7.3000000000    4.2146570440    63.5518645327    R3
Au    4.3800000000    4.2146570440    63.5518645327    R3
Au    1.4600000000    4.2146570440    63.5518645327    R3
Au    5.8400000000    1.6858628760    63.5518645327    R3
Au    2.9200000000    1.6858628760    63.5518645327    R3
Au    0.0000000000    1.6858628760    63.5518645327    R3
Au    10.2200000000    5.9005196280    65.93603460470001    R3
Au    7.3000000000    5.9005196280    65.93603460470001    R3
Au    4.3800000000    5.9005196280    65.93603460470001    R3
Au    8.7600000000    3.3717254600    65.93603460470001    R3
Au    5.8400000000    3.3717254600    65.93603460470001    R3
Au    2.9200000000    3.3717254600    65.93603460470001    R3
Au    7.3000000000    0.8429312920    65.93603460470001    R3
Au    4.3800000000    0.8429312920    65.93603460470001    R3
Au    1.4600000000    0.8429312920    65.93603460470001    R3
Au    8.7600000000    5.0575883360    68.3202046767    R3
Au    5.8400000000    5.0575883360    68.3202046767    R3
Au    2.9200000000    5.0575883360    68.3202046767    R3
Au    7.3000000000    2.5287941680    68.3202046767    R3
Au    4.3800000000    2.5287941680    68.3202046767    R3
Au    1.4600000000    2.5287941680    68.3202046767    R3
Au    5.8400000000    0.0000000000    68.3202046767    R3
Au    2.9200000000    0.0000000000    68.3202046767    R3
Au    0.0000000000    0.0000000000    68.3202046767    R3
