76
	Energy:   31899.0068069
Au    0.0000000000    0.0000000000    0.0000000000    L0
Au    2.9200000000    0.0000000000    0.0000000000    L0
Au    5.8400000000    0.0000000000    0.0000000000    L0
Au    1.4600000000    2.5287941680    0.0000000000    L0
Au    4.3800000000    2.5287941680    0.0000000000    L0
Au    7.3000000000    2.5287941680    0.0000000000    L0
Au    2.9200000000    5.0575883360    0.0000000000    L0
Au    5.8400000000    5.0575883360    0.0000000000    L0
Au    8.7600000000    5.0575883360    0.0000000000    L0
Au    1.4600000000    0.8429312920    2.3841700720    L0
Au    4.3800000000    0.8429312920    2.3841700720    L0
Au    7.3000000000    0.8429312920    2.3841700720    L0
Au    2.9200000000    3.3717254600    2.3841700720    L0
Au    5.8400000000    3.3717254600    2.3841700720    L0
Au    8.7600000000    3.3717254600    2.3841700720    L0
Au    4.3800000000    5.9005196280    2.3841700720    L0
Au    7.3000000000    5.9005196280    2.3841700720    L0
Au    10.2200000000    5.9005196280    2.3841700720    L0
Au    0.0000000000    1.6858628760    4.7683401440    L0
Au    2.9200000000    1.6858628760    4.7683401440    L0
Au    5.8400000000    1.6858628760    4.7683401440    L0
Au    1.4600000000    4.2146570440    4.7683401440    L0
Au    4.3800000000    4.2146570440    4.7683401440    L0
Au    7.3000000000    4.2146570440    4.7683401440    L0
Au    2.9200000000    6.7434512120    4.7683401440    L0
Au    5.8400000000    6.7434512120    4.7683401440    L0
Au    8.7600000000    6.7434512120    4.7683401440    L0
C    4.32595021576291    3.374513327059479    15.895991122506064    S
C    4.5368385533224735    4.537329060395646    15.183308346590136    S
C    4.358375678709962    4.53368771805131    13.798959696317752    S
C    3.969320141784993    3.35181559549681    13.07659791181047    S
C    3.917533190323827    2.215774925321586    15.26093934157052    S
C    3.7311248802434664    2.196851179973473    13.867973173461982    S
C    3.9190064021576956    3.317536302675937    11.536838329833978    S
H    4.555629266486882    5.490535519629984    13.354733279585036    S
S    4.515796456523795    3.337859198563564    17.636804404691482    S
H    3.7595484842080666    1.3316418417850224    15.873195617593598    S
H    3.4292461237798073    1.261229864323468    13.43471552460012    S
H    4.845824996313423    5.443617920423491    15.703817667868083    S
C    4.415508075255792    4.447156485533202    10.841158147571822    S
C    4.567682465689979    4.46037216677309    9.470174055590682    S
C    4.206431231111644    3.3362298988882704    8.736343354358848    S
C    3.6489834887822643    2.203668395041375    9.33151620914638    S
C    3.5022346824737336    2.1886497907632174    10.735038901364984    S
H    5.00586116111131    5.350781021512401    9.005734656658284    S
H    4.749605962470943    5.33719424269873    11.335532941405535    S
H    3.3695720427425777    1.3355856501769647    8.702829568529067    S
H    3.095116308302273    1.277014630230525    11.155309535471769    S
S    4.515796456523795    3.337859198563564    7.018340000000001    S
Au    8.7600000000    6.7434512120    18.636804404691482    R0
Au    5.8400000000    6.7434512120    18.636804404691482    R0
Au    2.9200000000    6.7434512120    18.636804404691482    R0
Au    7.3000000000    4.2146570440    18.636804404691482    R0
Au    4.3800000000    4.2146570440    18.636804404691482    R0
Au    1.4600000000    4.2146570440    18.636804404691482    R0
Au    5.8400000000    1.6858628760    18.636804404691482    R0
Au    2.9200000000    1.6858628760    18.636804404691482    R0
Au    0.0000000000    1.6858628760    18.636804404691482    R0
Au    10.2200000000    5.9005196280    21.020974476691485    R0
Au    7.3000000000    5.9005196280    21.020974476691485    R0
Au    4.3800000000    5.9005196280    21.020974476691485    R0
Au    8.7600000000    3.3717254600    21.020974476691485    R0
Au    5.8400000000    3.3717254600    21.020974476691485    R0
Au    2.9200000000    3.3717254600    21.020974476691485    R0
Au    7.3000000000    0.8429312920    21.020974476691485    R0
Au    4.3800000000    0.8429312920    21.020974476691485    R0
Au    1.4600000000    0.8429312920    21.020974476691485    R0
Au    8.7600000000    5.0575883360    23.40514454869148    R0
Au    5.8400000000    5.0575883360    23.40514454869148    R0
Au    2.9200000000    5.0575883360    23.40514454869148    R0
Au    7.3000000000    2.5287941680    23.40514454869148    R0
Au    4.3800000000    2.5287941680    23.40514454869148    R0
Au    1.4600000000    2.5287941680    23.40514454869148    R0
Au    5.8400000000    0.0000000000    23.40514454869148    R0
Au    2.9200000000    0.0000000000    23.40514454869148    R0
Au    0.0000000000    0.0000000000    23.40514454869148    R0
