      76
 i =      194, E =     -1888.0532211498
 Au         0.0000000000        0.0000000000        0.0000000000
 Au         2.9200000000        0.0000000000        0.0000000000
 Au         5.8400000000        0.0000000000        0.0000000000
 Au         1.4600000000        2.5287941680        0.0000000000
 Au         4.3800000000        2.5287941680        0.0000000000
 Au         7.3000000000        2.5287941680        0.0000000000
 Au         2.9200000000        5.0575883360        0.0000000000
 Au         5.8400000000        5.0575883360        0.0000000000
 Au         8.7600000000        5.0575883360        0.0000000000
 Au         1.4600000000        0.8429312920        2.3841700720
 Au         4.3800000000        0.8429312920        2.3841700720
 Au         7.3000000000        0.8429312920        2.3841700720
 Au         2.9200000000        3.3717254600        2.3841700720
 Au         5.8400000000        3.3717254600        2.3841700720
 Au         8.7600000000        3.3717254600        2.3841700720
 Au         4.3800000000        5.9005196280        2.3841700720
 Au         7.3000000000        5.9005196280        2.3841700720
 Au        10.2200000000        5.9005196280        2.3841700720
 Au         0.0000000000        1.6858628760        4.7683401440
 Au         2.9200000000        1.6858628760        4.7683401440
 Au         5.8400000000        1.6858628760        4.7683401440
 Au         1.4600000000        4.2146570440        4.7683401440
 Au         4.3800000000        4.2146570440        4.7683401440
 Au         7.3000000000        4.2146570440        4.7683401440
 Au         2.9200000000        6.7434512120        4.7683401440
 Au         5.8400000000        6.7434512120        4.7683401440
 Au         8.7600000000        6.7434512120        4.7683401440
  C        -0.5188890953        7.7103325908       13.2194244238
  C        -0.7304034773        7.8688589833       11.8089453262
  C         0.0672708697        7.2346169996       10.8883513736
  C         1.1272714962        6.3656340783       11.2892290926
  C         0.5317888430        6.8168658475       13.6173650688
  C         1.3115846397        6.1667461268       12.6898529991
  C         1.9796272030        5.7290131992       10.3079324609
  H        -0.1444536675        7.3697164046        9.8281919595
  S        -1.4539083828        8.5483305120       14.3516221429
  H         0.7084359549        6.6792939233       14.6840050064
  H         2.1167159098        5.5218267513       13.0405671895
  H        -1.5523477848        8.5074154322       11.4848215304
  C         2.0834664388        6.2444278337        8.9864057273
  C         2.8979929501        5.6593994430        8.0436950682
  C         3.6462339463        4.4948754012        8.3335287234
  C         3.5578334334        3.9734689400        9.6562513647
  C         2.7626650128        4.5787467117       10.6088296530
  H         2.9824586903        6.1118729877        7.0519900883
  H         1.5485314370        7.1522082943        8.7104796110
  H         4.1239344925        3.0779676823        9.9132770668
  H         2.7086741888        4.1287797286       11.5999809987
  S         4.6868208584        3.6823672962        7.2139720860
 Au         8.7600000000        6.7434512120       21.6368044047
 Au         5.8400000000        6.7434512120       21.6368044047
 Au         2.9200000000        6.7434512120       21.6368044047
 Au         7.3000000000        4.2146570440       21.6368044047
 Au         4.3800000000        4.2146570440       21.6368044047
 Au         1.4600000000        4.2146570440       21.6368044047
 Au         5.8400000000        1.6858628760       21.6368044047
 Au         2.9200000000        1.6858628760       21.6368044047
 Au         0.0000000000        1.6858628760       21.6368044047
 Au        10.2200000000        5.9005196280       24.0209744767
 Au         7.3000000000        5.9005196280       24.0209744767
 Au         4.3800000000        5.9005196280       24.0209744767
 Au         8.7600000000        3.3717254600       24.0209744767
 Au         5.8400000000        3.3717254600       24.0209744767
 Au         2.9200000000        3.3717254600       24.0209744767
 Au         7.3000000000        0.8429312920       24.0209744767
 Au         4.3800000000        0.8429312920       24.0209744767
 Au         1.4600000000        0.8429312920       24.0209744767
 Au         8.7600000000        5.0575883360       26.4051445487
 Au         5.8400000000        5.0575883360       26.4051445487
 Au         2.9200000000        5.0575883360       26.4051445487
 Au         7.3000000000        2.5287941680       26.4051445487
 Au         4.3800000000        2.5287941680       26.4051445487
 Au         1.4600000000        2.5287941680       26.4051445487
 Au         5.8400000000        0.0000000000       26.4051445487
 Au         2.9200000000        0.0000000000       26.4051445487
 Au         0.0000000000        0.0000000000       26.4051445487
      76
 i =      195, E =     -1888.0532252684
 Au         0.0000000000        0.0000000000        0.0000000000
 Au         2.9200000000        0.0000000000        0.0000000000
 Au         5.8400000000        0.0000000000        0.0000000000
 Au         1.4600000000        2.5287941680        0.0000000000
 Au         4.3800000000        2.5287941680        0.0000000000
 Au         7.3000000000        2.5287941680        0.0000000000
 Au         2.9200000000        5.0575883360        0.0000000000
 Au         5.8400000000        5.0575883360        0.0000000000
 Au         8.7600000000        5.0575883360        0.0000000000
 Au         1.4600000000        0.8429312920        2.3841700720
 Au         4.3800000000        0.8429312920        2.3841700720
 Au         7.3000000000        0.8429312920        2.3841700720
 Au         2.9200000000        3.3717254600        2.3841700720
 Au         5.8400000000        3.3717254600        2.3841700720
 Au         8.7600000000        3.3717254600        2.3841700720
 Au         4.3800000000        5.9005196280        2.3841700720
 Au         7.3000000000        5.9005196280        2.3841700720
 Au        10.2200000000        5.9005196280        2.3841700720
 Au         0.0000000000        1.6858628760        4.7683401440
 Au         2.9200000000        1.6858628760        4.7683401440
 Au         5.8400000000        1.6858628760        4.7683401440
 Au         1.4600000000        4.2146570440        4.7683401440
 Au         4.3800000000        4.2146570440        4.7683401440
 Au         7.3000000000        4.2146570440        4.7683401440
 Au         2.9200000000        6.7434512120        4.7683401440
 Au         5.8400000000        6.7434512120        4.7683401440
 Au         8.7600000000        6.7434512120        4.7683401440
  C        -0.5188890953        7.7103325908       13.2194244238
  C        -0.7304034773        7.8688589833       11.8089453262
  C         0.0672708697        7.2346169996       10.8883513736
  C         1.1272714962        6.3656340783       11.2892290926
  C         0.5317888430        6.8168658475       13.6173650688
  C         1.3115846397        6.1667461268       12.6898529991
  C         1.9796272030        5.7290131992       10.3079324609
  H        -0.1444536675        7.3697164046        9.8281919595
  S        -1.4539083828        8.5483305120       14.3516221429
  H         0.7084359549        6.6792939233       14.6840050064
  H         2.1167159098        5.5218267513       13.0405671895
  H        -1.5523477848        8.5074154322       11.4848215304
  C         2.0834664388        6.2444278337        8.9864057273
  C         2.8979929501        5.6593994430        8.0436950682
  C         3.6462339463        4.4948754012        8.3335287234
  C         3.5578334334        3.9734689400        9.6562513647
  C         2.7626650128        4.5787467117       10.6088296530
  H         2.9824586903        6.1118729877        7.0519900883
  H         1.5485314370        7.1522082943        8.7104796110
  H         4.1239344925        3.0779676823        9.9132770668
  H         2.7086741888        4.1287797286       11.5999809987
  S         4.6868208584        3.6823672962        7.2139720860
 Au         8.7600000000        6.7434512120       21.6368044047
 Au         5.8400000000        6.7434512120       21.6368044047
 Au         2.9200000000        6.7434512120       21.6368044047
 Au         7.3000000000        4.2146570440       21.6368044047
 Au         4.3800000000        4.2146570440       21.6368044047
 Au         1.4600000000        4.2146570440       21.6368044047
 Au         5.8400000000        1.6858628760       21.6368044047
 Au         2.9200000000        1.6858628760       21.6368044047
 Au         0.0000000000        1.6858628760       21.6368044047
 Au        10.2200000000        5.9005196280       24.0209744767
 Au         7.3000000000        5.9005196280       24.0209744767
 Au         4.3800000000        5.9005196280       24.0209744767
 Au         8.7600000000        3.3717254600       24.0209744767
 Au         5.8400000000        3.3717254600       24.0209744767
 Au         2.9200000000        3.3717254600       24.0209744767
 Au         7.3000000000        0.8429312920       24.0209744767
 Au         4.3800000000        0.8429312920       24.0209744767
 Au         1.4600000000        0.8429312920       24.0209744767
 Au         8.7600000000        5.0575883360       26.4051445487
 Au         5.8400000000        5.0575883360       26.4051445487
 Au         2.9200000000        5.0575883360       26.4051445487
 Au         7.3000000000        2.5287941680       26.4051445487
 Au         4.3800000000        2.5287941680       26.4051445487
 Au         1.4600000000        2.5287941680       26.4051445487
 Au         5.8400000000        0.0000000000       26.4051445487
 Au         2.9200000000        0.0000000000       26.4051445487
 Au         0.0000000000        0.0000000000       26.4051445487
