42
	Energy:      93.9573395
C          0.48958        4.40401       -0.38142
C         -0.82285        4.10473       -0.74064
C         -1.31931        2.80859       -0.58217
C         -0.51205        1.77180       -0.05143
C          1.30839        3.40350        0.13904
C          0.81785        2.10527        0.30571
C         -1.05330        0.37312        0.13661
C         -2.28086       -0.02506       -0.44088
C         -2.79039       -1.31109       -0.25428
C         -2.09943       -2.25436        0.52471
C         -0.36001       -0.59013        0.90537
C         -0.87709       -1.87296        1.09730
C         -2.62513       -3.66597        0.78541
C         -1.72162       -4.76907        0.23406
C         -1.98737       -6.09562        0.62364
C         -1.19819       -7.15014        0.16038
C         -0.12843       -6.89807       -0.70125
C         -0.63735       -4.52855       -0.63863
C          0.15017       -5.58796       -1.10000
N         -4.01919       -3.83222        0.32373
H         -2.63004       -3.79332        1.89147
C         -5.08921       -3.18067        0.81832
C         -6.20601       -3.60675        0.13624
N         -5.84243       -4.52364       -0.78106
C         -4.50649       -4.64288       -0.64290
H         -1.46659        4.87778       -1.14138
H         -2.34622        2.65378       -0.86784
S          1.11932        6.06661       -0.58526
H          2.33016        3.62876        0.41770
H          1.50714        1.38062        0.70620
H          0.57729       -0.37566        1.39104
H         -2.87047        0.63470       -1.05498
H         -3.72936       -1.55209       -0.73118
H         -0.32039       -2.57655        1.70488
H         -0.39251       -3.53145       -0.97651
H         -2.81142       -6.31148        1.29306
H         -1.42102       -8.16202        0.47401
S          0.88171       -8.25106       -1.29367
H          0.97718       -5.38760       -1.76939
H         -7.22155       -3.27116        0.29671
H         -5.05938       -2.44891        1.61548
H         -3.90796       -5.30857       -1.25027
