42
	Energy:      93.9573395
C   0.5989311369875506   0.4164355694056262   4.38729264838586
C   0.9418506961595314   -0.8908476970717205   4.0489190843687926
C   0.7191327437406078   -1.3657321152277082   2.754142781232621
C   0.13848133001452204   -0.541379497559907   1.7583647654167756
C   0.030349012788407265   1.2517345922386645   3.4274288047625254
C   -0.20065732425405697   0.7828040390093295   2.13106862260085
C   -0.11887311081927379   -1.0593462728978853   0.36190658203672865
C   0.4372333707164893   -2.2801301474916085   -0.08461091910499693
C   0.18690853624662307   -2.768250524381322   -1.3681176455044648
C   -0.6371647429932125   -2.0617336994590363   -2.2601639678132543
C   -0.9337140667791856   -0.35016823478146164   -0.5505594452452064
C   -1.1892104882868313   -0.8458906707371141   -1.8307322872032685
C   -0.9677164768536322   -2.563938064420252   -3.6656866816659233
C   -0.47079668265605207   -1.6422483970489619   -4.779556345403846
C   -0.9256555625342278   -1.8859499769071901   -6.089458433641962
C   -0.5144118623989179   -1.0793806709422282   -7.15235631404921
C   0.3594960364694983   -0.013950624767696623   -6.925473524036556
C   0.4135989874699396   -0.5621186960560423   -4.564513867982887
C   0.82271204968307   0.2428719796550053   -5.63222922787281
N   -0.5159567842103014   -3.9550474979316275   -3.877626514162
H   -2.078721092789372   -2.566734232620055   -3.7382936993217766
C   -0.978630795390993   -5.035731539282786   -3.220257338472347
C   -0.3193496265392244   -6.14530771024816   -3.6979691700437116
N   0.5518300081810192   -5.7665635433075275   -4.652912036689224
C   0.4090431548766555   -4.428828888864624   -4.7430228330787845
H   1.3797651616598279   -1.547326512906397   4.790448937419828
H   0.9959636286037533   -2.389931924540203   2.5684089800812493
S   0.8851775292223754   1.0185008598458092   6.047998029294745
H   -0.23600413827958977   2.269626111759935   3.6830853116283353
H   -0.6358935965717764   1.4840234682467937   1.4386155440324453
H   -1.4074266885287707   0.5834439560397454   -0.2968496721871698
H   1.082694629315828   -2.880606561737014   0.5341377045559672
H   0.6505498133681048   -3.7030922652298632   -1.6479157095013928
H   -1.8303520697734084   -0.27759244149313006   -2.494118923808984
H   0.8005277314610626   -0.3338575771319589   -3.581406071929485
H   -1.605597865267188   -2.70630469510295   -6.28560552076832
H   -0.8778323718742231   -1.2853895712993015   -8.151057463776382
S   0.8851775292223751   1.018500859845809   -8.289155714356749
H   1.5018610542255708   1.0664434863572445   -5.451510538255123
H   -0.4638767657948448   -7.166276435605509   -3.371736847211079
H   -1.7386407831448718   -5.018047953945291   -2.4496091039165546
H   0.9832742688554769   -3.8193353044838143   -5.4278993564297275
