      82
 i =      286, E =     -1959.1215756834
 Au         0.0000000000        0.0000000000        0.0000000000
 Au         2.9200000000        0.0000000000        0.0000000000
 Au         5.8400000000        0.0000000000        0.0000000000
 Au         1.4600000000        2.5287941680        0.0000000000
 Au         4.3800000000        2.5287941680        0.0000000000
 Au         7.3000000000        2.5287941680        0.0000000000
 Au         2.9200000000        5.0575883360        0.0000000000
 Au         5.8400000000        5.0575883360        0.0000000000
 Au         8.7600000000        5.0575883360        0.0000000000
 Au         1.4600000000        0.8429312920        2.3841700720
 Au         4.3800000000        0.8429312920        2.3841700720
 Au         7.3000000000        0.8429312920        2.3841700720
 Au         2.9200000000        3.3717254600        2.3841700720
 Au         5.8400000000        3.3717254600        2.3841700720
 Au         8.7600000000        3.3717254600        2.3841700720
 Au         4.3800000000        5.9005196280        2.3841700720
 Au         7.3000000000        5.9005196280        2.3841700720
 Au        10.2200000000        5.9005196280        2.3841700720
 Au         0.0000000000        1.6858628760        4.7683401440
 Au         2.9200000000        1.6858628760        4.7683401440
 Au         5.8400000000        1.6858628760        4.7683401440
 Au         1.4600000000        4.2146570440        4.7683401440
 Au         4.3800000000        4.2146570440        4.7683401440
 Au         7.3000000000        4.2146570440        4.7683401440
 Au         2.9200000000        6.7434512120        4.7683401440
 Au         5.8400000000        6.7434512120        4.7683401440
 Au         8.7600000000        6.7434512120        4.7683401440
  C         6.1305672921        3.4403990258        9.4867023012
  C         5.9210597332        4.3737145295        8.4345473432
  C         5.7605078493        5.7405400610        8.6892380319
  C         5.8069475619        6.1416955077       10.0286141291
  C         6.1756223978        3.8530491745       10.8054033044
  C         6.0138654668        5.2193377115       11.0930622572
  C         5.9875387806        5.9483144733       12.3279791447
  C         5.7731929831        7.2721324089       11.9920452829
  N         5.6636473670        7.3883336052       10.6122647536
  C         6.1270077064        5.2280233494       13.6329756400
  C         6.5216247968        6.0078823868       14.9012723377
  H         5.1955002217        4.6943147329       13.8772920994
  H         6.8808945049        4.4352647195       13.4847971878
  N         7.7499618340        6.8040945365       14.7265220640
  C         6.8072657607        4.9046886836       15.9378519154
  H         5.6724356303        6.6119848302       15.2583349283
  O         5.9465823228        4.1157639282       16.3313424567
  O         8.0887331755        4.8033236938       16.2762719862
  H         8.5090833863        5.5692379869       15.7604905188
  H         5.5426765963        8.2602985731       10.1094922259
  H         5.6734688226        8.1520087669       12.6201653447
  S         5.8402491177        3.6204129748        6.8348082791
  H         5.5975806310        6.4443935217        7.8715883752
  H         6.2426301090        2.3869529961        9.2314595171
  H         6.3241372550        3.1232636070       11.6026667518
  H         7.9141416884        7.0115867591       13.7388465517
  H         7.7030860867        7.6897678797       15.2327981264
 Au         4.3800000000        4.2146600000       18.0928808759
 Au         8.7600000000        6.7434512120       20.4770508759
 Au         5.8400000000        6.7434512120       20.4770508759
 Au         2.9200000000        6.7434512120       20.4770508759
 Au         7.3000000000        4.2146570440       20.4770508759
 Au         4.3800000000        4.2146570440       20.4770508759
 Au         1.4600000000        4.2146570440       20.4770508759
 Au         5.8400000000        1.6858628760       20.4770508759
 Au         2.9200000000        1.6858628760       20.4770508759
 Au         0.0000000000        1.6858628760       20.4770508759
 Au        10.2200000000        5.9005196280       22.8612209479
 Au         7.3000000000        5.9005196280       22.8612209479
 Au         4.3800000000        5.9005196280       22.8612209479
 Au         8.7600000000        3.3717254600       22.8612209479
 Au         5.8400000000        3.3717254600       22.8612209479
 Au         2.9200000000        3.3717254600       22.8612209479
 Au         7.3000000000        0.8429312920       22.8612209479
 Au         4.3800000000        0.8429312920       22.8612209479
 Au         1.4600000000        0.8429312920       22.8612209479
 Au         8.7600000000        5.0575883360       25.2453910199
 Au         5.8400000000        5.0575883360       25.2453910199
 Au         2.9200000000        5.0575883360       25.2453910199
 Au         7.3000000000        2.5287941680       25.2453910199
 Au         4.3800000000        2.5287941680       25.2453910199
 Au         1.4600000000        2.5287941680       25.2453910199
 Au         5.8400000000        0.0000000000       25.2453910199
 Au         2.9200000000        0.0000000000       25.2453910199
 Au         0.0000000000        0.0000000000       25.2453910199
Au    10.2200000000    5.9005196280    47.334085149100005    R1
Au    7.3000000000    5.9005196280    47.334085149100005    R1
Au    4.3800000000    5.9005196280    47.334085149100005    R1
Au    8.7600000000    3.3717254600    47.334085149100005    R1
Au    5.8400000000    3.3717254600    47.334085149100005    R1
Au    2.9200000000    3.3717254600    47.334085149100005    R1
Au    7.3000000000    0.8429312920    47.334085149100005    R1
Au    4.3800000000    0.8429312920    47.334085149100005    R1
Au    1.4600000000    0.8429312920    47.334085149100005    R1
Au    8.7600000000    5.0575883360    49.7182552211    R1
Au    5.8400000000    5.0575883360    49.7182552211    R1
Au    2.9200000000    5.0575883360    49.7182552211    R1
Au    7.3000000000    2.5287941680    49.7182552211    R1
Au    4.3800000000    2.5287941680    49.7182552211    R1
Au    1.4600000000    2.5287941680    49.7182552211    R1
Au    5.8400000000    0.0000000000    49.7182552211    R1
Au    2.9200000000    0.0000000000    49.7182552211    R1
Au    0.0000000000    0.0000000000    49.7182552211    R1
Au    8.7600000000    6.7434512120    52.1024250011    R2
Au    5.8400000000    6.7434512120    52.1024250011    R2
Au    2.9200000000    6.7434512120    52.1024250011    R2
Au    7.3000000000    4.2146570440    52.1024250011    R2
Au    4.3800000000    4.2146570440    52.1024250011    R2
Au    1.4600000000    4.2146570440    52.1024250011    R2
Au    5.8400000000    1.6858628760    52.1024250011    R2
Au    2.9200000000    1.6858628760    52.1024250011    R2
Au    0.0000000000    1.6858628760    52.1024250011    R2
Au    10.2200000000    5.9005196280    54.486595073100005    R2
Au    7.3000000000    5.9005196280    54.486595073100005    R2
Au    4.3800000000    5.9005196280    54.486595073100005    R2
Au    8.7600000000    3.3717254600    54.486595073100005    R2
Au    5.8400000000    3.3717254600    54.486595073100005    R2
Au    2.9200000000    3.3717254600    54.486595073100005    R2
Au    7.3000000000    0.8429312920    54.486595073100005    R2
Au    4.3800000000    0.8429312920    54.486595073100005    R2
Au    1.4600000000    0.8429312920    54.486595073100005    R2
Au    8.7600000000    5.0575883360    56.8707651451    R2
Au    5.8400000000    5.0575883360    56.8707651451    R2
Au    2.9200000000    5.0575883360    56.8707651451    R2
Au    7.3000000000    2.5287941680    56.8707651451    R2
Au    4.3800000000    2.5287941680    56.8707651451    R2
Au    1.4600000000    2.5287941680    56.8707651451    R2
Au    5.8400000000    0.0000000000    56.8707651451    R2
Au    2.9200000000    0.0000000000    56.8707651451    R2
Au    0.0000000000    0.0000000000    56.8707651451    R2
Au    8.7600000000    6.7434512120    59.25493492509999    R3
Au    5.8400000000    6.7434512120    59.25493492509999    R3
Au    2.9200000000    6.7434512120    59.25493492509999    R3
Au    7.3000000000    4.2146570440    59.25493492509999    R3
Au    4.3800000000    4.2146570440    59.25493492509999    R3
Au    1.4600000000    4.2146570440    59.25493492509999    R3
Au    5.8400000000    1.6858628760    59.25493492509999    R3
Au    2.9200000000    1.6858628760    59.25493492509999    R3
Au    0.0000000000    1.6858628760    59.25493492509999    R3
Au    10.2200000000    5.9005196280    61.639104997100006    R3
Au    7.3000000000    5.9005196280    61.639104997100006    R3
Au    4.3800000000    5.9005196280    61.639104997100006    R3
Au    8.7600000000    3.3717254600    61.639104997100006    R3
Au    5.8400000000    3.3717254600    61.639104997100006    R3
Au    2.9200000000    3.3717254600    61.639104997100006    R3
Au    7.3000000000    0.8429312920    61.639104997100006    R3
Au    4.3800000000    0.8429312920    61.639104997100006    R3
Au    1.4600000000    0.8429312920    61.639104997100006    R3
Au    8.7600000000    5.0575883360    64.0232750691    R3
Au    5.8400000000    5.0575883360    64.0232750691    R3
Au    2.9200000000    5.0575883360    64.0232750691    R3
Au    7.3000000000    2.5287941680    64.0232750691    R3
Au    4.3800000000    2.5287941680    64.0232750691    R3
Au    1.4600000000    2.5287941680    64.0232750691    R3
Au    5.8400000000    0.0000000000    64.0232750691    R3
Au    2.9200000000    0.0000000000    64.0232750691    R3
Au    0.0000000000    0.0000000000    64.0232750691    R3