27
	Energy:      62.4379604
C         -3.54601        2.99973       -0.40883
C         -4.66948        2.18507       -0.13893
C         -4.49709        0.84169        0.24591
C         -3.19467        0.35506        0.34791
C         -2.24399        2.47939       -0.29687
C         -2.10525        1.14477        0.08585
C         -0.98006        0.36554        0.27711
C         -1.45865       -0.88891        0.66470
N         -2.81060       -0.88301        0.70014
C          0.44478        0.83927        0.11092
C          1.53671       -0.24287        0.31279
H          0.58807        1.64601        0.86255
H          0.56698        1.28191       -0.90178
N          1.50581       -1.24003       -0.76292
C          2.92831        0.35805        0.35926
H          1.37094       -0.74128        1.29268
O          3.10332        1.55741        0.20443
O          3.99918       -0.43489        0.57654
H          3.90592       -1.38866        0.70923
H         -3.42978       -1.68360        0.95744
H         -0.86559       -1.75670        0.91721
S         -6.31846        2.86381       -0.28573
H         -5.34643        0.20455        0.45745
H         -3.68281        4.03216       -0.70409
H         -1.38021        3.09834       -0.50237
H          1.66331       -0.77620       -1.68778
H          0.59335       -1.74215       -0.79960
