      82
 i =      314, E =     -1901.8246970914
 Au         0.0000000000        0.0000000000        0.0000000000
 Au         2.9200000000        0.0000000000        0.0000000000
 Au         5.8400000000        0.0000000000        0.0000000000
 Au         1.4600000000        2.5287941680        0.0000000000
 Au         4.3800000000        2.5287941680        0.0000000000
 Au         7.3000000000        2.5287941680        0.0000000000
 Au         2.9200000000        5.0575883360        0.0000000000
 Au         5.8400000000        5.0575883360        0.0000000000
 Au         8.7600000000        5.0575883360        0.0000000000
 Au         1.4600000000        0.8429312920        2.3841700720
 Au         4.3800000000        0.8429312920        2.3841700720
 Au         7.3000000000        0.8429312920        2.3841700720
 Au         2.9200000000        3.3717254600        2.3841700720
 Au         5.8400000000        3.3717254600        2.3841700720
 Au         8.7600000000        3.3717254600        2.3841700720
 Au         4.3800000000        5.9005196280        2.3841700720
 Au         7.3000000000        5.9005196280        2.3841700720
 Au        10.2200000000        5.9005196280        2.3841700720
 Au         0.0000000000        1.6858628760        4.7683401440
 Au         2.9200000000        1.6858628760        4.7683401440
 Au         5.8400000000        1.6858628760        4.7683401440
 Au         1.4600000000        4.2146570440        4.7683401440
 Au         4.3800000000        4.2146570440        4.7683401440
 Au         7.3000000000        4.2146570440        4.7683401440
 Au         2.9200000000        6.7434512120        4.7683401440
 Au         5.8400000000        6.7434512120        4.7683401440
 Au         8.7600000000        6.7434512120        4.7683401440
  C         5.6884594219        3.0024706420       17.6589083540
  C         5.2710323830        4.0959683266       16.8765151583
  C         5.7014929728        4.2127117577       15.5591091635
  C         6.5647124313        3.2680794427       14.9731997946
  C         6.6097276302        2.0914877640       17.1159184253
  C         7.0349904788        2.2280943119       15.7906695482
  C         7.2287668948        2.2739532336       11.2624254325
  H         5.3346805947        5.0460203727       14.9553896201
  S         4.7987281387        2.6549526293       19.1584398979
  H         6.9613277279        1.2552189207       17.7205189632
  H         7.7273741202        1.4874957750       15.3878700283
  H         4.5747055235        4.8230267547       17.2944724976
  C         8.0927002826        3.0384455022       10.4590657344
  C         7.8357918450        3.2461992878        9.1019775715
  C         6.6896702453        2.6859271761        8.5107212491
  C         5.8559156208        1.8581551908        9.2850890815
  C         6.1255475089        1.6674903537       10.6382511823
  H         8.5044228882        3.8655681183        8.5038030134
  H         8.9784853975        3.4979433495       10.9036079527
  H         4.9800810671        1.3966529437        8.8288006667
  H         5.4509023309        1.0443852816       11.2296303356
  S         6.1029258177        3.1926867608        6.9090262036
  C         6.9068329529        3.4150475136       13.5018236653
  H         6.0010173527        3.7747943754       12.9872082507
  H         7.6470533869        4.2240601203       13.3748770080
  C         7.4134677457        2.1538029102       12.7607681007
  H         6.8519001151        1.2763137366       13.1172930200
  H         8.4724674933        1.9733466407       13.0043723080
 Au         8.7600000000        6.7434512120       21.3096500000
 Au         5.8400000000        6.7434512120       21.3096500000
 Au         2.9200000000        6.7434512120       21.3096500000
 Au         7.3000000000        4.2146570440       21.3096500000
 Au         4.3800000000        4.2146570440       21.3096500000
 Au         1.4600000000        4.2146570440       21.3096500000
 Au         5.8400000000        1.6858628760       21.3096500000
 Au         2.9200000000        1.6858628760       21.3096500000
 Au         0.0000000000        1.6858628760       21.3096500000
 Au        10.2200000000        5.9005196280       23.6938200720
 Au         7.3000000000        5.9005196280       23.6938200720
 Au         4.3800000000        5.9005196280       23.6938200720
 Au         8.7600000000        3.3717254600       23.6938200720
 Au         5.8400000000        3.3717254600       23.6938200720
 Au         2.9200000000        3.3717254600       23.6938200720
 Au         7.3000000000        0.8429312920       23.6938200720
 Au         4.3800000000        0.8429312920       23.6938200720
 Au         1.4600000000        0.8429312920       23.6938200720
 Au         8.7600000000        5.0575883360       26.0779901440
 Au         5.8400000000        5.0575883360       26.0779901440
 Au         2.9200000000        5.0575883360       26.0779901440
 Au         7.3000000000        2.5287941680       26.0779901440
 Au         4.3800000000        2.5287941680       26.0779901440
 Au         1.4600000000        2.5287941680       26.0779901440
 Au         5.8400000000        0.0000000000       26.0779901440
 Au         2.9200000000        0.0000000000       26.0779901440
 Au         0.0000000000        0.0000000000       26.0779901440
Au    8.7600000000    6.7434512120    49.91969028    R1
Au    5.8400000000    6.7434512120    49.91969028    R1
Au    2.9200000000    6.7434512120    49.91969028    R1
Au    7.3000000000    4.2146570440    49.91969028    R1
Au    4.3800000000    4.2146570440    49.91969028    R1
Au    1.4600000000    4.2146570440    49.91969028    R1
Au    5.8400000000    1.6858628760    49.91969028    R1
Au    2.9200000000    1.6858628760    49.91969028    R1
Au    0.0000000000    1.6858628760    49.91969028    R1
Au    10.2200000000    5.9005196280    52.303860352    R1
Au    7.3000000000    5.9005196280    52.303860352    R1
Au    4.3800000000    5.9005196280    52.303860352    R1
Au    8.7600000000    3.3717254600    52.303860352    R1
Au    5.8400000000    3.3717254600    52.303860352    R1
Au    2.9200000000    3.3717254600    52.303860352    R1
Au    7.3000000000    0.8429312920    52.303860352    R1
Au    4.3800000000    0.8429312920    52.303860352    R1
Au    1.4600000000    0.8429312920    52.303860352    R1
Au    8.7600000000    5.0575883360    54.688030424    R1
Au    5.8400000000    5.0575883360    54.688030424    R1
Au    2.9200000000    5.0575883360    54.688030424    R1
Au    7.3000000000    2.5287941680    54.688030424    R1
Au    4.3800000000    2.5287941680    54.688030424    R1
Au    1.4600000000    2.5287941680    54.688030424    R1
Au    5.8400000000    0.0000000000    54.688030424    R1
Au    2.9200000000    0.0000000000    54.688030424    R1
Au    0.0000000000    0.0000000000    54.688030424    R1
Au    8.7600000000    6.7434512120    57.072200204    R2
Au    5.8400000000    6.7434512120    57.072200204    R2
Au    2.9200000000    6.7434512120    57.072200204    R2
Au    7.3000000000    4.2146570440    57.072200204    R2
Au    4.3800000000    4.2146570440    57.072200204    R2
Au    1.4600000000    4.2146570440    57.072200204    R2
Au    5.8400000000    1.6858628760    57.072200204    R2
Au    2.9200000000    1.6858628760    57.072200204    R2
Au    0.0000000000    1.6858628760    57.072200204    R2
Au    10.2200000000    5.9005196280    59.456370276    R2
Au    7.3000000000    5.9005196280    59.456370276    R2
Au    4.3800000000    5.9005196280    59.456370276    R2
Au    8.7600000000    3.3717254600    59.456370276    R2
Au    5.8400000000    3.3717254600    59.456370276    R2
Au    2.9200000000    3.3717254600    59.456370276    R2
Au    7.3000000000    0.8429312920    59.456370276    R2
Au    4.3800000000    0.8429312920    59.456370276    R2
Au    1.4600000000    0.8429312920    59.456370276    R2
Au    8.7600000000    5.0575883360    61.840540348    R2
Au    5.8400000000    5.0575883360    61.840540348    R2
Au    2.9200000000    5.0575883360    61.840540348    R2
Au    7.3000000000    2.5287941680    61.840540348    R2
Au    4.3800000000    2.5287941680    61.840540348    R2
Au    1.4600000000    2.5287941680    61.840540348    R2
Au    5.8400000000    0.0000000000    61.840540348    R2
Au    2.9200000000    0.0000000000    61.840540348    R2
Au    0.0000000000    0.0000000000    61.840540348    R2
Au    8.7600000000    6.7434512120    64.224710128    R3
Au    5.8400000000    6.7434512120    64.224710128    R3
Au    2.9200000000    6.7434512120    64.224710128    R3
Au    7.3000000000    4.2146570440    64.224710128    R3
Au    4.3800000000    4.2146570440    64.224710128    R3
Au    1.4600000000    4.2146570440    64.224710128    R3
Au    5.8400000000    1.6858628760    64.224710128    R3
Au    2.9200000000    1.6858628760    64.224710128    R3
Au    0.0000000000    1.6858628760    64.224710128    R3
Au    10.2200000000    5.9005196280    66.60888020000002    R3
Au    7.3000000000    5.9005196280    66.60888020000002    R3
Au    4.3800000000    5.9005196280    66.60888020000002    R3
Au    8.7600000000    3.3717254600    66.60888020000002    R3
Au    5.8400000000    3.3717254600    66.60888020000002    R3
Au    2.9200000000    3.3717254600    66.60888020000002    R3
Au    7.3000000000    0.8429312920    66.60888020000002    R3
Au    4.3800000000    0.8429312920    66.60888020000002    R3
Au    1.4600000000    0.8429312920    66.60888020000002    R3
Au    8.7600000000    5.0575883360    68.993050272    R3
Au    5.8400000000    5.0575883360    68.993050272    R3
Au    2.9200000000    5.0575883360    68.993050272    R3
Au    7.3000000000    2.5287941680    68.993050272    R3
Au    4.3800000000    2.5287941680    68.993050272    R3
Au    1.4600000000    2.5287941680    68.993050272    R3
Au    5.8400000000    0.0000000000    68.993050272    R3
Au    2.9200000000    0.0000000000    68.993050272    R3
Au    0.0000000000    0.0000000000    68.993050272    R3