81
	Energy:      28.0773810
 Au         0.0000000000        0.0000000000        0.0000000000 L3
 Au         2.9200000000        0.0000000000        0.0000000000 L3
 Au         5.8400000000        0.0000000000        0.0000000000 L3
 Au         1.4600000000        2.5287941680        0.0000000000 L3
 Au         4.3800000000        2.5287941680        0.0000000000 L3
 Au         7.3000000000        2.5287941680        0.0000000000 L3
 Au         2.9200000000        5.0575883360        0.0000000000 L3
 Au         5.8400000000        5.0575883360        0.0000000000 L3
 Au         8.7600000000        5.0575883360        0.0000000000 L3
 Au         1.4600000000        0.8429312920        2.3841700720 L3
 Au         4.3800000000        0.8429312920        2.3841700720 L3
 Au         7.3000000000        0.8429312920        2.3841700720 L3
 Au         2.9200000000        3.3717254600        2.3841700720 L3
 Au         5.8400000000        3.3717254600        2.3841700720 L3
 Au         8.7600000000        3.3717254600        2.3841700720 L3
 Au         4.3800000000        5.9005196280        2.3841700720 L3
 Au         7.3000000000        5.9005196280        2.3841700720 L3
 Au        10.2200000000        5.9005196280        2.3841700720 L3
 Au         0.0000000000        1.6858628760        4.7683401440 L3
 Au         2.9200000000        1.6858628760        4.7683401440 L3
 Au         5.8400000000        1.6858628760        4.7683401440 L3
 Au         1.4600000000        4.2146570440        4.7683401440 L3
 Au         4.3800000000        4.2146570440        4.7683401440 L3
 Au         7.3000000000        4.2146570440        4.7683401440 L3
 Au         2.9200000000        6.7434512120        4.7683401440 L3
 Au         5.8400000000        6.7434512120        4.7683401440 L3
 Au         8.7600000000        6.7434512120        4.7683401440 L3
C          5.76588        6.74134       -4.90195
C          6.17205        7.94291       -5.48879
C          6.17617        8.07810       -6.88078
C          5.77348        7.01437       -7.70485
C          5.36380        5.67414       -5.70924
C          5.36581        5.80523       -7.10119
C          5.49423        6.25203      -11.55550
H          6.49362        9.01724       -7.31752
S          5.75948        6.56890       -3.12051
H          5.04788        4.74068       -5.26072
H          5.04594        4.95636       -7.68821
H          6.48438        8.77361       -4.86869
C          5.96428        7.53960      -12.15758
C          6.02383        7.68295      -13.49301
C          5.62475        6.56646      -14.38263
C          5.20430        5.40662      -13.85200
C          5.13756        5.24334      -12.38053
H          6.36631        8.61957      -13.92204
H          6.26565        8.37358      -11.53354
H          4.90955        4.58157      -14.49317
H          4.79274        4.29565      -11.97618
S          5.70579        6.76876      -16.16182
C          5.79936        7.23302       -9.20370
C          5.39976        6.02320      -10.05977
H          5.12971        8.08763       -9.44430
H          4.34878        5.75331       -9.81591
H          6.06719        5.17134       -9.80543
 Au         8.7600000000        6.7434512120       35.9028394760 R0
 Au         5.8400000000        6.7434512120       35.9028394760 R0
 Au         2.9200000000        6.7434512120       35.9028394760 R0
 Au         7.3000000000        4.2146570440       35.9028394760 R0
 Au         4.3800000000        4.2146570440       35.9028394760 R0
 Au         1.4600000000        4.2146570440       35.9028394760 R0
 Au         5.8400000000        1.6858628760       35.9028394760 R0
 Au         2.9200000000        1.6858628760       35.9028394760 R0
 Au         0.0000000000        1.6858628760       35.9028394760 R0
 Au        10.2200000000        5.9005196280       38.2870095480 R0
 Au         7.3000000000        5.9005196280       38.2870095480 R0
 Au         4.3800000000        5.9005196280       38.2870095480 R0
 Au         8.7600000000        3.3717254600       38.2870095480 R0
 Au         5.8400000000        3.3717254600       38.2870095480 R0
 Au         2.9200000000        3.3717254600       38.2870095480 R0
 Au         7.3000000000        0.8429312920       38.2870095480 R0
 Au         4.3800000000        0.8429312920       38.2870095480 R0
 Au         1.4600000000        0.8429312920       38.2870095480 R0
 Au         8.7600000000        5.0575883360       40.6711796200 R0
 Au         5.8400000000        5.0575883360       40.6711796200 R0
 Au         2.9200000000        5.0575883360       40.6711796200 R0
 Au         7.3000000000        2.5287941680       40.6711796200 R0
 Au         4.3800000000        2.5287941680       40.6711796200 R0
 Au         1.4600000000        2.5287941680       40.6711796200 R0
 Au         5.8400000000        0.0000000000       40.6711796200 R0
 Au         2.9200000000        0.0000000000       40.6711796200 R0
 Au         0.0000000000        0.0000000000       40.6711796200 R0
