      81
 i =       99, E =      -418.1353676981
H   -25.048268837835238   -1.2368686493200498   18.890415882368316
C   -25.299198294168622   -0.49976164847994303   18.125227807023325
C   -24.98907126762445   0.855114387025396   18.347405138288437
C   -25.313649992109124   1.7956590157349022   17.347281245985478
H   -25.072551887334114   2.8474529333859624   17.509438517358397
C   -25.95357975110144   1.4030319418417163   16.183957257046583
H   -26.207671458460307   2.1329737034026564   15.415464181416425
C   -26.315598660024154   0.03891955414618683   15.965964530216041
C   -25.945714698387388   -0.9055418220354987   16.9668699901628
H   -26.199583111364294   -1.953887534783902   16.81083672882863
C   -24.379247106726503   1.3003575990083074   19.653119345783587
N   -25.24358686298352   2.28845750972406   20.334918606347326
H   -23.41156164559065   1.7978518732537043   19.473713154584896
H   -24.172766161801995   0.4166432438384263   20.283063557329786
C   -24.753885083648836   2.784950422203954   21.605664225808358
C   -26.610481730843244   1.8800085201446113   20.57605994989307
C   -27.82451883697682   1.679623788635864   28.312820648183344
C   -28.320087414946197   0.3841006258335286   28.736895301301683
C   -27.181336936875045   -0.43523525410524355   29.102444576477826
C   -25.976198501107636   0.35390183800275155   28.90656071145485
C   -26.37460338865961   1.6590297898868354   28.41172815633842
C   -25.596487691681926   2.300555257987805   27.44379640690763
C   -24.383920695687706   1.6830187820031257   26.941818160582464
C   -23.997523227834098   0.4284220150727784   27.423541610165003
C   -24.815482457668548   -0.24821067218902337   28.4152069832595
C   -24.81332580779256   -1.6637440333616142   28.099228782675606
C   -25.96919054175403   -2.424490722832721   28.285780435602764
C   -27.177098831875462   -1.801793682058218   28.798747687144534
C   -28.31090195272236   -2.400773707930934   28.123611783721227
C   -29.413532070192332   -1.6127290727722046   27.772606052794035
C   -29.418440031960237   -0.19540142179366865   28.08108788582578
C   -30.057138324875325   0.5035893594111215   26.98244938150393
C   -30.444020192832472   -0.48537892932669735   25.98858694467457
C   -30.051485730757143   -1.7958185923516639   26.478909554482954
C   -29.564391001950526   -2.7549627914263364   25.586681242476068
C   -28.418831412643737   -3.5709134815426125   25.95151264444667
C   -27.80553746631361   -3.397727241050938   27.194070273298305
C   -26.356762385034976   -3.410852541577277   27.294331455768685
C   -25.576060745363424   -3.5929241319280534   26.148549641614384
C   -24.376529671512873   -2.800399714384483   25.953320237449393
C   -23.997384092292823   -1.8566147496035652   26.915776932354937
C   -23.49077932892572   -0.5651920478044028   26.498556542726156
C   -23.389381172766807   -0.2641728887006888   25.134836453295538
C   -23.792785239258006   1.0387504659647524   24.636796599099796
C   -24.267301584403643   1.9942488755749055   25.530326053210707
C   -25.43057836274125   2.7991307391605886   25.150999998581987
C   -26.020373476599186   2.642859334070075   23.90598391732656
C   -25.379839227452873   1.856498311734599   22.757182520877645
C   -24.411231299366122   0.8673795207323791   23.330487907956233
C   -24.43601987799415   -0.5046806467450511   23.047188605117984
C   -23.7929367313658   -1.2348537169356681   24.14521462449366
C   -24.27175988798036   -2.478309524361952   24.546233596119592
C   -25.415738510464553   -3.0823460495988435   23.863252715435827
C   -26.213580277891587   -3.7690913193230497   24.856562907159752
C   -27.61017535443178   -3.7627692235143306   24.76071397845391
C   -28.249335011161076   -3.072459813851118   23.66218669484814
C   -29.455603968712207   -2.449867655540261   24.171001871164304
C   -29.827479449353138   -1.1872343708182258   23.69944935414217
C   -30.327016408926283   -0.19049404735131342   24.627479692613786
C   -29.81027701541913   1.0995603405716208   24.212013006631103
C   -28.998288128270975   0.9103629467514364   23.03339589482692
C   -29.017096111518054   -0.5130000535959526   22.70356005620062
C   -27.855808405918495   -1.1037495229221521   22.21602367983968
C   -27.470500509944266   -2.414839794054722   22.70232536448466
C   -26.031857246853107   -2.4145413177347574   22.809857235044618
C   -25.555979210668752   -1.0952361463774107   22.378003952399403
C   -26.653579643037144   -0.31417530113866077   21.991682567315795
C   -26.660325953520157   1.1851443597605968   22.009059825459488
C   -27.854478615414646   1.6635772749499462   22.829916263033518
C   -27.452759803597935   2.61545365475184   23.819913904724842
C   -28.254128142540058   2.8294515798950797   24.965895799654515
C   -29.457451705387655   2.0591242544907575   25.1641952350409
C   -29.578997844903668   1.754611099040652   26.57666113798866
C   -28.441630968249687   2.3538398089290933   27.254809291138123
C   -27.631519066373166   3.0181347247714623   26.251997289565928
C   -26.237349496976062   2.981791339509902   26.33720613302687
H   -26.9925823643152   1.2281153216542529   19.78357567461819
H   -27.24953866157889   2.7734990537024644   20.625856221823188
S   -27.18133915734082   -0.43523103940520413   14.564612654367306
H   -25.12635809707417   3.8076499630588776   21.771462905827327
H   -23.65729834550928   2.807428814286425   21.638688927626415
