     682
 i =      402, E =     -1614.5588022613
Au     0.000000     0.000000     0.000000     L3
Au     8.760000     0.000000     0.000000     L3
Au     4.380000     7.586382     0.000000     L3
Au     13.140000     7.586382     0.000000     L3
Au     2.920000     0.000000     0.000000     L3
Au     11.680000     0.000000     0.000000     L3
Au     7.300000     7.586382     0.000000     L3
Au     16.059999     7.586382     0.000000     L3
Au     5.840000     0.000000     0.000000     L3
Au     10.220000     7.586382     0.000000     L3
Au     1.460000     2.528794     0.000000     L3
Au     10.220000     2.528794     0.000000     L3
Au     5.840000     10.115176     0.000000     L3
Au     14.600000     10.115176     0.000000     L3
Au     4.380000     2.528794     0.000000     L3
Au     13.140000     2.528794     0.000000     L3
Au     8.760000     10.115176     0.000000     L3
Au     17.520000     10.115176     0.000000     L3
Au     7.300000     2.528794     0.000000     L3
Au     11.680000     10.115176     0.000000     L3
Au     2.920000     5.057588     0.000000     L3
Au     11.680000     5.057588     0.000000     L3
Au     5.840000     5.057588     0.000000     L3
Au     14.600000     5.057588     0.000000     L3
Au     8.760000     5.057588     0.000000     L3
Au     1.460000     0.842931     2.384170     L3
Au     10.220000     0.842931     2.384170     L3
Au     5.840000     8.429314     2.384170     L3
Au     14.600000     8.429314     2.384170     L3
Au     4.380000     0.842931     2.384170     L3
Au     13.140000     0.842931     2.384170     L3
Au     8.760000     8.429314     2.384170     L3
Au     17.520000     8.429314     2.384170     L3
Au     7.300000     0.842931     2.384170     L3
Au     11.680000     8.429314     2.384170     L3
Au     2.920000     3.371726     2.384170     L3
Au     11.680000     3.371726     2.384170     L3
Au     7.300000     10.958108     2.384170     L3
Au     16.059999     10.958108     2.384170     L3
Au     5.840000     3.371726     2.384170     L3
Au     14.600000     3.371726     2.384170     L3
Au     10.220000     10.958108     2.384170     L3
Au     18.980000     10.958108     2.384170     L3
Au     8.760000     3.371726     2.384170     L3
Au     13.140000     10.958108     2.384170     L3
Au     4.380000     5.900520     2.384170     L3
Au     13.140000     5.900520     2.384170     L3
Au     7.300000     5.900520     2.384170     L3
Au     16.059999     5.900520     2.384170     L3
Au     10.220000     5.900520     2.384170     L3
Au     8.760000     1.685863     4.768340     L3
Au     13.140000     9.272245     4.768340     L3
Au     2.920000     1.685863     4.768340     L3
Au     11.680000     1.685863     4.768340     L3
Au     7.300000     9.272245     4.768340     L3
Au     16.059999     9.272245     4.768340     L3
Au     5.840000     1.685863     4.768340     L3
Au     14.600000     1.685863     4.768340     L3
Au     10.220000     9.272245     4.768340     L3
Au     18.980000     9.272245     4.768340     L3
Au     10.220000     4.214657     4.768340     L3
Au     14.600000     11.801040     4.768340     L3
Au     4.380000     4.214657     4.768340     L3
Au     13.140000     4.214657     4.768340     L3
Au     8.760000     11.801040     4.768340     L3
Au     17.520000     11.801040     4.768340     L3
Au     7.300000     4.214657     4.768340     L3
Au     16.059999     4.214657     4.768340     L3
Au     11.680000     11.801040     4.768340     L3
Au     20.440001     11.801040     4.768340     L3
Au     11.680000     6.743451     4.768340     L3
Au     5.840000     6.743451     4.768340     L3
Au     14.600000     6.743451     4.768340     L3
Au     8.760000     6.743451     4.768340     L3
Au     17.520000     6.743451     4.768340     L3
Au     0.000000     0.000000     7.152510     L2
Au     8.760000     0.000000     7.152510     L2
Au     4.380000     7.586382     7.152510     L2
Au     13.140000     7.586382     7.152510     L2
Au     2.920000     0.000000     7.152510     L2
Au     11.680000     0.000000     7.152510     L2
Au     7.300000     7.586382     7.152510     L2
Au     16.059999     7.586382     7.152510     L2
Au     5.840000     0.000000     7.152510     L2
Au     10.220000     7.586382     7.152510     L2
Au     1.460000     2.528794     7.152510     L2
Au     10.220000     2.528794     7.152510     L2
Au     5.840000     10.115176     7.152510     L2
Au     14.600000     10.115176     7.152510     L2
Au     4.380000     2.528794     7.152510     L2
Au     13.140000     2.528794     7.152510     L2
Au     8.760000     10.115176     7.152510     L2
Au     17.520000     10.115176     7.152510     L2
Au     7.300000     2.528794     7.152510     L2
Au     11.680000     10.115176     7.152510     L2
Au     2.920000     5.057588     7.152510     L2
Au     11.680000     5.057588     7.152510     L2
Au     5.840000     5.057588     7.152510     L2
Au     14.600000     5.057588     7.152510     L2
Au     8.760000     5.057588     7.152510     L2
Au     1.460000     0.842931     9.536680     L2
Au     10.220000     0.842931     9.536680     L2
Au     5.840000     8.429314     9.536680     L2
Au     14.600000     8.429314     9.536680     L2
Au     4.380000     0.842931     9.536680     L2
Au     13.140000     0.842931     9.536680     L2
Au     8.760000     8.429314     9.536680     L2
Au     17.520000     8.429314     9.536680     L2
Au     7.300000     0.842931     9.536680     L2
Au     11.680000     8.429314     9.536680     L2
Au     2.920000     3.371726     9.536680     L2
Au     11.680000     3.371726     9.536680     L2
Au     7.300000     10.958108     9.536680     L2
Au     16.059999     10.958108     9.536680     L2
Au     5.840000     3.371726     9.536680     L2
Au     14.600000     3.371726     9.536680     L2
Au     10.220000     10.958108     9.536680     L2
Au     18.980000     10.958108     9.536680     L2
Au     8.760000     3.371726     9.536680     L2
Au     13.140000     10.958108     9.536680     L2
Au     4.380000     5.900520     9.536680     L2
Au     13.140000     5.900520     9.536680     L2
Au     7.300000     5.900520     9.536680     L2
Au     16.059999     5.900520     9.536680     L2
Au     10.220000     5.900520     9.536680     L2
Au     8.760000     1.685863     11.920850     L2
Au     13.140000     9.272245     11.920850     L2
Au     2.920000     1.685863     11.920850     L2
Au     11.680000     1.685863     11.920850     L2
Au     7.300000     9.272245     11.920850     L2
Au     16.059999     9.272245     11.920850     L2
Au     5.840000     1.685863     11.920850     L2
Au     14.600000     1.685863     11.920850     L2
Au     10.220000     9.272245     11.920850     L2
Au     18.980000     9.272245     11.920850     L2
Au     10.220000     4.214657     11.920850     L2
Au     14.600000     11.801040     11.920850     L2
Au     4.380000     4.214657     11.920850     L2
Au     13.140000     4.214657     11.920850     L2
Au     8.760000     11.801040     11.920850     L2
Au     17.520000     11.801040     11.920850     L2
Au     7.300000     4.214657     11.920850     L2
Au     16.059999     4.214657     11.920850     L2
Au     11.680000     11.801040     11.920850     L2
Au     20.440001     11.801040     11.920850     L2
Au     11.680000     6.743451     11.920850     L2
Au     5.840000     6.743451     11.920850     L2
Au     14.600000     6.743451     11.920850     L2
Au     8.760000     6.743451     11.920850     L2
Au     17.520000     6.743451     11.920850     L2
Au     0.000000     0.000000     14.305019     L1
Au     8.760000     0.000000     14.305019     L1
Au     4.380000     7.586382     14.305019     L1
Au     13.140000     7.586382     14.305019     L1
Au     2.920000     0.000000     14.305019     L1
Au     11.680000     0.000000     14.305019     L1
Au     7.300000     7.586382     14.305019     L1
Au     16.059999     7.586382     14.305019     L1
Au     5.840000     0.000000     14.305019     L1
Au     10.220000     7.586382     14.305019     L1
Au     1.460000     2.528794     14.305019     L1
Au     10.220000     2.528794     14.305019     L1
Au     5.840000     10.115176     14.305019     L1
Au     14.600000     10.115176     14.305019     L1
Au     4.380000     2.528794     14.305019     L1
Au     13.140000     2.528794     14.305019     L1
Au     8.760000     10.115176     14.305019     L1
Au     17.520000     10.115176     14.305019     L1
Au     7.300000     2.528794     14.305019     L1
Au     11.680000     10.115176     14.305019     L1
Au     2.920000     5.057588     14.305019     L1
Au     11.680000     5.057588     14.305019     L1
Au     5.840000     5.057588     14.305019     L1
Au     14.600000     5.057588     14.305019     L1
Au     8.760000     5.057588     14.305019     L1
Au     1.460000     0.842931     16.689190     L1
Au     10.220000     0.842931     16.689190     L1
Au     5.840000     8.429314     16.689190     L1
Au     14.600000     8.429314     16.689190     L1
Au     4.380000     0.842931     16.689190     L1
Au     13.140000     0.842931     16.689190     L1
Au     8.760000     8.429314     16.689190     L1
Au     17.520000     8.429314     16.689190     L1
Au     7.300000     0.842931     16.689190     L1
Au     11.680000     8.429314     16.689190     L1
Au     2.920000     3.371726     16.689190     L1
Au     11.680000     3.371726     16.689190     L1
Au     7.300000     10.958108     16.689190     L1
Au     16.059999     10.958108     16.689190     L1
Au     5.840000     3.371726     16.689190     L1
Au     14.600000     3.371726     16.689190     L1
Au     10.220000     10.958108     16.689190     L1
Au     18.980000     10.958108     16.689190     L1
Au     8.760000     3.371726     16.689190     L1
Au     13.140000     10.958108     16.689190     L1
Au     4.380000     5.900520     16.689190     L1
Au     13.140000     5.900520     16.689190     L1
Au     7.300000     5.900520     16.689190     L1
Au     16.059999     5.900520     16.689190     L1
Au     10.220000     5.900520     16.689190     L1
Au     8.760000     1.685863     19.073360     L1
Au     13.140000     9.272245     19.073360     L1
Au     2.920000     1.685863     19.073360     L1
Au     11.680000     1.685863     19.073360     L1
Au     7.300000     9.272245     19.073360     L1
Au     16.059999     9.272245     19.073360     L1
Au     5.840000     1.685863     19.073360     L1
Au     14.600000     1.685863     19.073360     L1
Au     10.220000     9.272245     19.073360     L1
Au     18.980000     9.272245     19.073360     L1
Au     10.220000     4.214657     19.073360     L1
Au     14.600000     11.801040     19.073360     L1
Au     4.380000     4.214657     19.073360     L1
Au     13.140000     4.214657     19.073360     L1
Au     8.760000     11.801040     19.073360     L1
Au     17.520000     11.801040     19.073360     L1
Au     7.300000     4.214657     19.073360     L1
Au     16.059999     4.214657     19.073360     L1
Au     11.680000     11.801040     19.073360     L1
Au     20.440001     11.801040     19.073360     L1
Au     11.680000     6.743451     19.073360     L1
Au     5.840000     6.743451     19.073360     L1
Au     14.600000     6.743451     19.073360     L1
Au     8.760000     6.743451     19.073360     L1
Au     17.520000     6.743451     19.073360     L1
Au    0.0000000000    0.0000000000    21.457530000000002    L0
Au    8.7600000000    0.0000000000    21.457530000000002    L0
Au    4.3800000000    7.5863820000    21.457530000000002    L0
Au    13.1400000000    7.5863820000    21.457530000000002    L0
Au    2.9200000000    0.0000000000    21.457530000000002    L0
Au    11.6800000000    0.0000000000    21.457530000000002    L0
Au    7.3000000000    7.5863820000    21.457530000000002    L0
Au    16.0599990000    7.5863820000    21.457530000000002    L0
Au    5.8400000000    0.0000000000    21.457530000000002    L0
Au    10.2200000000    7.5863820000    21.457530000000002    L0
Au    1.4600000000    2.5287940000    21.457530000000002    L0
Au    10.2200000000    2.5287940000    21.457530000000002    L0
Au    5.8400000000    10.1151760000    21.457530000000002    L0
Au    14.6000000000    10.1151760000    21.457530000000002    L0
Au    4.3800000000    2.5287940000    21.457530000000002    L0
Au    13.1400000000    2.5287940000    21.457530000000002    L0
Au    8.7600000000    10.1151760000    21.457530000000002    L0
Au    17.5200000000    10.1151760000    21.457530000000002    L0
Au    7.3000000000    2.5287940000    21.457530000000002    L0
Au    11.6800000000    10.1151760000    21.457530000000002    L0
Au    2.9200000000    5.0575880000    21.457530000000002    L0
Au    11.6800000000    5.0575880000    21.457530000000002    L0
Au    5.8400000000    5.0575880000    21.457530000000002    L0
Au    14.6000000000    5.0575880000    21.457530000000002    L0
Au    8.7600000000    5.0575880000    21.457530000000002    L0
Au    1.4600000000    0.8429310000    23.841700000000003    L0
Au    10.2200000000    0.8429310000    23.841700000000003    L0
Au    5.8400000000    8.4293140000    23.841700000000003    L0
Au    14.6000000000    8.4293140000    23.841700000000003    L0
Au    4.3800000000    0.8429310000    23.841700000000003    L0
Au    13.1400000000    0.8429310000    23.841700000000003    L0
Au    8.7600000000    8.4293140000    23.841700000000003    L0
Au    17.5200000000    8.4293140000    23.841700000000003    L0
Au    7.3000000000    0.8429310000    23.841700000000003    L0
Au    11.6800000000    8.4293140000    23.841700000000003    L0
Au    2.9200000000    3.3717260000    23.841700000000003    L0
Au    11.6800000000    3.3717260000    23.841700000000003    L0
Au    7.3000000000    10.9581080000    23.841700000000003    L0
Au    16.0599990000    10.9581080000    23.841700000000003    L0
Au    5.8400000000    3.3717260000    23.841700000000003    L0
Au    14.6000000000    3.3717260000    23.841700000000003    L0
Au    10.2200000000    10.9581080000    23.841700000000003    L0
Au    18.9800000000    10.9581080000    23.841700000000003    L0
Au    8.7600000000    3.3717260000    23.841700000000003    L0
Au    13.1400000000    10.9581080000    23.841700000000003    L0
Au    4.3800000000    5.9005200000    23.841700000000003    L0
Au    13.1400000000    5.9005200000    23.841700000000003    L0
Au    7.3000000000    5.9005200000    23.841700000000003    L0
Au    16.0599990000    5.9005200000    23.841700000000003    L0
Au    10.2200000000    5.9005200000    23.841700000000003    L0
Au    8.7600000000    1.6858630000    26.22587    L0
Au    13.1400000000    9.2722450000    26.22587    L0
Au    2.9200000000    1.6858630000    26.22587    L0
Au    11.6800000000    1.6858630000    26.22587    L0
Au    7.3000000000    9.2722450000    26.22587    L0
Au    16.0599990000    9.2722450000    26.22587    L0
Au    5.8400000000    1.6858630000    26.22587    L0
Au    14.6000000000    1.6858630000    26.22587    L0
Au    10.2200000000    9.2722450000    26.22587    L0
Au    18.9800000000    9.2722450000    26.22587    L0
Au    10.2200000000    4.2146570000    26.22587    L0
Au    14.6000000000    11.8010400000    26.22587    L0
Au    4.3800000000    4.2146570000    26.22587    L0
Au    13.1400000000    4.2146570000    26.22587    L0
Au    8.7600000000    11.8010400000    26.22587    L0
Au    17.5200000000    11.8010400000    26.22587    L0
Au    7.3000000000    4.2146570000    26.22587    L0
Au    16.0599990000    4.2146570000    26.22587    L0
Au    11.6800000000    11.8010400000    26.22587    L0
Au    20.4400010000    11.8010400000    26.22587    L0
Au    11.6800000000    6.7434510000    26.22587    L0
Au    5.8400000000    6.7434510000    26.22587    L0
Au    14.6000000000    6.7434510000    26.22587    L0
Au    8.7600000000    6.7434510000    26.22587    L0
Au    17.5200000000    6.7434510000    26.22587    L0
C    8.6753559615    2.0474626465    39.9420216737    S
C    9.6100945805    1.1447878379    39.295759892700005    S
C    9.5444611550    1.3693856907    37.866659257500004    S
C    8.5485162366    2.4310338632    37.62829630900001    S
C    8.0226247321    2.8375929677    38.9146008263    S
C    7.7075438255    4.1812382640    39.1633737616    S
C    7.9348858869    5.1628924837    38.130072954    S
C    8.4694027617    4.7529172041    36.9002007557    S
C    8.7549549450    3.3698426533    36.6350931556    S
C    9.8202600508    3.2430903287    35.5514242984    S
C    10.9035078968    2.0901585095    35.808208727700006    S
C    10.6917449879    1.3006442308    37.097508770900006    S
C    11.9520991712    1.0380929759    37.737084823100005    S
C    12.0329959975    0.7928169993    39.1155376242    S
C    10.8327533347    0.8487578770    39.9147870298    S
C    11.1685643340    1.4549924893    41.18881066430001    S
C    12.5873331535    1.7719099486    41.1746151297    S
C    13.1237958476    1.3606917084    39.889637198100004    S
C    14.1003774569    2.1352193102    39.2577352889    S
C    14.0263028145    2.3742496642    37.8262211281    S
C    12.9646424551    1.8410246341    37.0804676088    S
C    12.3282806282    2.5983287567    36.034047738    S
C    12.7365373633    3.8997966213    35.8071305652    S
C    11.7409618518    4.9606498293    35.5676919264    S
C    10.3905130102    4.6633490497    35.5669961437    S
C    9.4824777235    5.5542400554    36.2425637997    S
C    9.9304555779    6.7415397037    36.8401959563    S
C    9.3908345277    7.1568339609    38.1244139648    S
C    8.4130304118    6.3837398755    38.756372597500004    S
C    8.4835497129    6.1483792404    40.1873939195    S
C    9.5331513102    6.6948914868    40.933771881300004    S
C    10.5494792550    7.5006015478    40.277085968600005    S
C    10.4787712179    7.7280816126    38.8983042029    S
C    11.6842632491    7.6657407924    38.088383076    S
C    11.3383534050    7.0579811610    36.81791264    S
C    12.2279990398    6.1689498175    36.1990696357    S
C    13.5041690449    5.8742421578    36.8235547223    S
C    13.8148654810    4.4775403980    36.5810862526    S
C    14.4632970682    3.7257214237    37.5701521303    S
C    14.8064793735    4.3368315334    38.8395641435    S
C    14.5829750458    3.3522508202    39.8857507723    S
C    14.0649840523    3.7516058786    41.1228787779    S
C    13.0483931259    2.9463350218    41.779657973300004    S
C    12.1102955269    3.8474003266    42.4238905811    S
C    12.5460543513    5.2090224914    42.1672375054    S
C    13.7536664767    5.1492748302    41.362495331800005    S
C    13.9706287084    6.0968816477    40.355462359300006    S
C    14.5037675543    5.6838853043    39.07271697030001    S
C    13.8459894356    6.4698525950    38.041714379300004    S
C    12.9146476002    7.3776023427    38.69081859320001    S
C    12.9878913159    7.1442814452    40.11933938600001    S
C    11.8273048972    7.2033863514    40.8992008619    S
C    11.6014535727    6.2155671103    41.93976773360001    S
C    10.1837430175    5.9012631639    41.9605815914    S
C    9.7621556374    4.5884554706    42.202095604700006    S
C    10.7446262518    3.5411849963    42.4384257447    S
C    10.2660261277    2.3266869649    41.808936819500005    S
C    8.9916020896    2.6230622747    41.1765737431    S
C    8.6775790188    4.0202225722    41.4269272774    S
C    8.0470923760    4.7840612573    40.4379040481    S
C    10.7502166605    1.1776690947    34.5105431725    S
C    9.1868552646    2.8169993262    34.1580731    S
N    10.1542115352    1.9842414907    33.4597917651    S
H    11.7075867843    0.7416979156    34.1987855877    S
H    10.0631730799    0.3552800412    34.7650514286    S
H    8.2889824224    2.2172250530    34.372789205400004    S
H    8.8825088994    3.6822419425    33.557747789100006    S
C    10.3868413861    3.3722047690    31.4370297735    S
C    10.6394891755    4.7112396950    31.1105683643    S
C    9.9285492564    5.3531796714    30.0959085187    S
C    8.9296765735    4.6558825257    29.3969723209    S
C    9.4281454689    2.6681327697    30.690703161100004    S
C    8.7050393733    3.2957447906    29.682133922400002    S
H    11.3875637886    5.2721578548    31.6743367189    S
H    9.2264607803    1.6240763634    30.9337090148    S
H    7.9403212245    2.7489363203    29.130379274200003    S
H    10.1184925794    6.4022351696    29.8692593034    S
S    7.7979764456    5.5520184551    28.3654666364    S
C    11.1043075544    2.7035554444    32.5881214747    S
H    11.8068579018    1.9482046040    32.1996140282    S
H    11.7103611659    3.4574894756    33.122898075900004    S
Au    10.22000   4.21466  45.42389 R0
Au    0.000000    0.000000    47.80806    R0
Au    8.760000    0.000000    47.80806    R0
Au    4.380000    7.586382    47.80806    R0
Au    13.140000    7.586382    47.80806    R0
Au    2.920000    0.000000    47.80806    R0
Au    11.680000    0.000000    47.80806    R0
Au    7.300000    7.586382    47.80806    R0
Au    16.059999    7.586382    47.80806    R0
Au    5.840000    0.000000    47.80806    R0
Au    10.220000    7.586382    47.80806    R0
Au    1.460000    2.528794    47.80806    R0
Au    10.220000    2.528794    47.80806    R0
Au    5.840000    10.115176    47.80806    R0
Au    14.600000    10.115176    47.80806    R0
Au    4.380000    2.528794    47.80806    R0
Au    13.140000    2.528794    47.80806    R0
Au    8.760000    10.115176    47.80806    R0
Au    17.520000    10.115176    47.80806    R0
Au    7.300000    2.528794    47.80806    R0
Au    11.680000    10.115176    47.80806    R0
Au    2.920000    5.057588    47.80806    R0
Au    11.680000    5.057588    47.80806    R0
Au    5.840000    5.057588    47.80806    R0
Au    14.600000    5.057588    47.80806    R0
Au    8.760000    5.057588    47.80806    R0
Au    1.460000    0.842931    50.192229999999995    R0
Au    10.220000    0.842931    50.192229999999995    R0
Au    5.840000    8.429314    50.192229999999995    R0
Au    14.600000    8.429314    50.192229999999995    R0
Au    4.380000    0.842931    50.192229999999995    R0
Au    13.140000    0.842931    50.192229999999995    R0
Au    8.760000    8.429314    50.192229999999995    R0
Au    17.520000    8.429314    50.192229999999995    R0
Au    7.300000    0.842931    50.192229999999995    R0
Au    11.680000    8.429314    50.192229999999995    R0
Au    2.920000    3.371726    50.192229999999995    R0
Au    11.680000    3.371726    50.192229999999995    R0
Au    7.300000    10.958108    50.192229999999995    R0
Au    16.059999    10.958108    50.192229999999995    R0
Au    5.840000    3.371726    50.192229999999995    R0
Au    14.600000    3.371726    50.192229999999995    R0
Au    10.220000    10.958108    50.192229999999995    R0
Au    18.980000    10.958108    50.192229999999995    R0
Au    8.760000    3.371726    50.192229999999995    R0
Au    13.140000    10.958108    50.192229999999995    R0
Au    4.380000    5.900520    50.192229999999995    R0
Au    13.140000    5.900520    50.192229999999995    R0
Au    7.300000    5.900520    50.192229999999995    R0
Au    16.059999    5.900520    50.192229999999995    R0
Au    10.220000    5.900520    50.192229999999995    R0
Au    8.760000    1.685863    52.5764    R0
Au    13.140000    9.272245    52.5764    R0
Au    2.920000    1.685863    52.5764    R0
Au    11.680000    1.685863    52.5764    R0
Au    7.300000    9.272245    52.5764    R0
Au    16.059999    9.272245    52.5764    R0
Au    5.840000    1.685863    52.5764    R0
Au    14.600000    1.685863    52.5764    R0
Au    10.220000    9.272245    52.5764    R0
Au    18.980000    9.272245    52.5764    R0
Au    10.220000    4.214657    52.5764    R0
Au    14.600000    11.801040    52.5764    R0
Au    4.380000    4.214657    52.5764    R0
Au    13.140000    4.214657    52.5764    R0
Au    8.760000    11.801040    52.5764    R0
Au    17.520000    11.801040    52.5764    R0
Au    7.300000    4.214657    52.5764    R0
Au    16.059999    4.214657    52.5764    R0
Au    11.680000    11.801040    52.5764    R0
Au    20.440001    11.801040    52.5764    R0
Au    11.680000    6.743451    52.5764    R0
Au    5.840000    6.743451    52.5764    R0
Au    14.600000    6.743451    52.5764    R0
Au    8.760000    6.743451    52.5764    R0
Au    17.520000    6.743451    52.5764    R0
Au    0.000000    0.000000    54.96057    R1
Au    8.760000    0.000000    54.96057    R1
Au    4.380000    7.586382    54.96057    R1
Au    13.140000    7.586382    54.96057    R1
Au    2.920000    0.000000    54.96057    R1
Au    11.680000    0.000000    54.96057    R1
Au    7.300000    7.586382    54.96057    R1
Au    16.059999    7.586382    54.96057    R1
Au    5.840000    0.000000    54.96057    R1
Au    10.220000    7.586382    54.96057    R1
Au    1.460000    2.528794    54.96057    R1
Au    10.220000    2.528794    54.96057    R1
Au    5.840000    10.115176    54.96057    R1
Au    14.600000    10.115176    54.96057    R1
Au    4.380000    2.528794    54.96057    R1
Au    13.140000    2.528794    54.96057    R1
Au    8.760000    10.115176    54.96057    R1
Au    17.520000    10.115176    54.96057    R1
Au    7.300000    2.528794    54.96057    R1
Au    11.680000    10.115176    54.96057    R1
Au    2.920000    5.057588    54.96057    R1
Au    11.680000    5.057588    54.96057    R1
Au    5.840000    5.057588    54.96057    R1
Au    14.600000    5.057588    54.96057    R1
Au    8.760000    5.057588    54.96057    R1
Au    1.460000    0.842931    57.34474    R1
Au    10.220000    0.842931    57.34474    R1
Au    5.840000    8.429314    57.34474    R1
Au    14.600000    8.429314    57.34474    R1
Au    4.380000    0.842931    57.34474    R1
Au    13.140000    0.842931    57.34474    R1
Au    8.760000    8.429314    57.34474    R1
Au    17.520000    8.429314    57.34474    R1
Au    7.300000    0.842931    57.34474    R1
Au    11.680000    8.429314    57.34474    R1
Au    2.920000    3.371726    57.34474    R1
Au    11.680000    3.371726    57.34474    R1
Au    7.300000    10.958108    57.34474    R1
Au    16.059999    10.958108    57.34474    R1
Au    5.840000    3.371726    57.34474    R1
Au    14.600000    3.371726    57.34474    R1
Au    10.220000    10.958108    57.34474    R1
Au    18.980000    10.958108    57.34474    R1
Au    8.760000    3.371726    57.34474    R1
Au    13.140000    10.958108    57.34474    R1
Au    4.380000    5.900520    57.34474    R1
Au    13.140000    5.900520    57.34474    R1
Au    7.300000    5.900520    57.34474    R1
Au    16.059999    5.900520    57.34474    R1
Au    10.220000    5.900520    57.34474    R1
Au    8.760000    1.685863    59.72891    R1
Au    13.140000    9.272245    59.72891    R1
Au    2.920000    1.685863    59.72891    R1
Au    11.680000    1.685863    59.72891    R1
Au    7.300000    9.272245    59.72891    R1
Au    16.059999    9.272245    59.72891    R1
Au    5.840000    1.685863    59.72891    R1
Au    14.600000    1.685863    59.72891    R1
Au    10.220000    9.272245    59.72891    R1
Au    18.980000    9.272245    59.72891    R1
Au    10.220000    4.214657    59.72891    R1
Au    14.600000    11.801040    59.72891    R1
Au    4.380000    4.214657    59.72891    R1
Au    13.140000    4.214657    59.72891    R1
Au    8.760000    11.801040    59.72891    R1
Au    17.520000    11.801040    59.72891    R1
Au    7.300000    4.214657    59.72891    R1
Au    16.059999    4.214657    59.72891    R1
Au    11.680000    11.801040    59.72891    R1
Au    20.440001    11.801040    59.72891    R1
Au    11.680000    6.743451    59.72891    R1
Au    5.840000    6.743451    59.72891    R1
Au    14.600000    6.743451    59.72891    R1
Au    8.760000    6.743451    59.72891    R1
Au    17.520000    6.743451    59.72891    R1
Au    0.000000    0.000000    62.113079    R2
Au    8.760000    0.000000    62.113079    R2
Au    4.380000    7.586382    62.113079    R2
Au    13.140000    7.586382    62.113079    R2
Au    2.920000    0.000000    62.113079    R2
Au    11.680000    0.000000    62.113079    R2
Au    7.300000    7.586382    62.113079    R2
Au    16.059999    7.586382    62.113079    R2
Au    5.840000    0.000000    62.113079    R2
Au    10.220000    7.586382    62.113079    R2
Au    1.460000    2.528794    62.113079    R2
Au    10.220000    2.528794    62.113079    R2
Au    5.840000    10.115176    62.113079    R2
Au    14.600000    10.115176    62.113079    R2
Au    4.380000    2.528794    62.113079    R2
Au    13.140000    2.528794    62.113079    R2
Au    8.760000    10.115176    62.113079    R2
Au    17.520000    10.115176    62.113079    R2
Au    7.300000    2.528794    62.113079    R2
Au    11.680000    10.115176    62.113079    R2
Au    2.920000    5.057588    62.113079    R2
Au    11.680000    5.057588    62.113079    R2
Au    5.840000    5.057588    62.113079    R2
Au    14.600000    5.057588    62.113079    R2
Au    8.760000    5.057588    62.113079    R2
Au    1.460000    0.842931    64.49725    R2
Au    10.220000    0.842931    64.49725    R2
Au    5.840000    8.429314    64.49725    R2
Au    14.600000    8.429314    64.49725    R2
Au    4.380000    0.842931    64.49725    R2
Au    13.140000    0.842931    64.49725    R2
Au    8.760000    8.429314    64.49725    R2
Au    17.520000    8.429314    64.49725    R2
Au    7.300000    0.842931    64.49725    R2
Au    11.680000    8.429314    64.49725    R2
Au    2.920000    3.371726    64.49725    R2
Au    11.680000    3.371726    64.49725    R2
Au    7.300000    10.958108    64.49725    R2
Au    16.059999    10.958108    64.49725    R2
Au    5.840000    3.371726    64.49725    R2
Au    14.600000    3.371726    64.49725    R2
Au    10.220000    10.958108    64.49725    R2
Au    18.980000    10.958108    64.49725    R2
Au    8.760000    3.371726    64.49725    R2
Au    13.140000    10.958108    64.49725    R2
Au    4.380000    5.900520    64.49725    R2
Au    13.140000    5.900520    64.49725    R2
Au    7.300000    5.900520    64.49725    R2
Au    16.059999    5.900520    64.49725    R2
Au    10.220000    5.900520    64.49725    R2
Au    8.760000    1.685863    66.88141999999999    R2
Au    13.140000    9.272245    66.88141999999999    R2
Au    2.920000    1.685863    66.88141999999999    R2
Au    11.680000    1.685863    66.88141999999999    R2
Au    7.300000    9.272245    66.88141999999999    R2
Au    16.059999    9.272245    66.88141999999999    R2
Au    5.840000    1.685863    66.88141999999999    R2
Au    14.600000    1.685863    66.88141999999999    R2
Au    10.220000    9.272245    66.88141999999999    R2
Au    18.980000    9.272245    66.88141999999999    R2
Au    10.220000    4.214657    66.88141999999999    R2
Au    14.600000    11.801040    66.88141999999999    R2
Au    4.380000    4.214657    66.88141999999999    R2
Au    13.140000    4.214657    66.88141999999999    R2
Au    8.760000    11.801040    66.88141999999999    R2
Au    17.520000    11.801040    66.88141999999999    R2
Au    7.300000    4.214657    66.88141999999999    R2
Au    16.059999    4.214657    66.88141999999999    R2
Au    11.680000    11.801040    66.88141999999999    R2
Au    20.440001    11.801040    66.88141999999999    R2
Au    11.680000    6.743451    66.88141999999999    R2
Au    5.840000    6.743451    66.88141999999999    R2
Au    14.600000    6.743451    66.88141999999999    R2
Au    8.760000    6.743451    66.88141999999999    R2
Au    17.520000    6.743451    66.88141999999999    R2
Au    0.000000    0.000000    69.265589    R3
Au    8.760000    0.000000    69.265589    R3
Au    4.380000    7.586382    69.265589    R3
Au    13.140000    7.586382    69.265589    R3
Au    2.920000    0.000000    69.265589    R3
Au    11.680000    0.000000    69.265589    R3
Au    7.300000    7.586382    69.265589    R3
Au    16.059999    7.586382    69.265589    R3
Au    5.840000    0.000000    69.265589    R3
Au    10.220000    7.586382    69.265589    R3
Au    1.460000    2.528794    69.265589    R3
Au    10.220000    2.528794    69.265589    R3
Au    5.840000    10.115176    69.265589    R3
Au    14.600000    10.115176    69.265589    R3
Au    4.380000    2.528794    69.265589    R3
Au    13.140000    2.528794    69.265589    R3
Au    8.760000    10.115176    69.265589    R3
Au    17.520000    10.115176    69.265589    R3
Au    7.300000    2.528794    69.265589    R3
Au    11.680000    10.115176    69.265589    R3
Au    2.920000    5.057588    69.265589    R3
Au    11.680000    5.057588    69.265589    R3
Au    5.840000    5.057588    69.265589    R3
Au    14.600000    5.057588    69.265589    R3
Au    8.760000    5.057588    69.265589    R3
Au    1.460000    0.842931    71.64976    R3
Au    10.220000    0.842931    71.64976    R3
Au    5.840000    8.429314    71.64976    R3
Au    14.600000    8.429314    71.64976    R3
Au    4.380000    0.842931    71.64976    R3
Au    13.140000    0.842931    71.64976    R3
Au    8.760000    8.429314    71.64976    R3
Au    17.520000    8.429314    71.64976    R3
Au    7.300000    0.842931    71.64976    R3
Au    11.680000    8.429314    71.64976    R3
Au    2.920000    3.371726    71.64976    R3
Au    11.680000    3.371726    71.64976    R3
Au    7.300000    10.958108    71.64976    R3
Au    16.059999    10.958108    71.64976    R3
Au    5.840000    3.371726    71.64976    R3
Au    14.600000    3.371726    71.64976    R3
Au    10.220000    10.958108    71.64976    R3
Au    18.980000    10.958108    71.64976    R3
Au    8.760000    3.371726    71.64976    R3
Au    13.140000    10.958108    71.64976    R3
Au    4.380000    5.900520    71.64976    R3
Au    13.140000    5.900520    71.64976    R3
Au    7.300000    5.900520    71.64976    R3
Au    16.059999    5.900520    71.64976    R3
Au    10.220000    5.900520    71.64976    R3
Au    8.760000    1.685863    74.03393    R3
Au    13.140000    9.272245    74.03393    R3
Au    2.920000    1.685863    74.03393    R3
Au    11.680000    1.685863    74.03393    R3
Au    7.300000    9.272245    74.03393    R3
Au    16.059999    9.272245    74.03393    R3
Au    5.840000    1.685863    74.03393    R3
Au    14.600000    1.685863    74.03393    R3
Au    10.220000    9.272245    74.03393    R3
Au    18.980000    9.272245    74.03393    R3
Au    10.220000    4.214657    74.03393    R3
Au    14.600000    11.801040    74.03393    R3
Au    4.380000    4.214657    74.03393    R3
Au    13.140000    4.214657    74.03393    R3
Au    8.760000    11.801040    74.03393    R3
Au    17.520000    11.801040    74.03393    R3
Au    7.300000    4.214657    74.03393    R3
Au    16.059999    4.214657    74.03393    R3
Au    11.680000    11.801040    74.03393    R3
Au    20.440001    11.801040    74.03393    R3
Au    11.680000    6.743451    74.03393    R3
Au    5.840000    6.743451    74.03393    R3
Au    14.600000    6.743451    74.03393    R3
Au    8.760000    6.743451    74.03393    R3
Au    17.520000    6.743451    74.03393    R3
