     117
 i =      402, E =     -1614.5588022613
 Au         1.6649000000        0.0000000000        0.0000000000
 Au         6.6598000000        0.0000000000        0.0000000000
 Au         4.1623000000        1.4419000000        0.0000000000
 Au         9.1572000000        1.4419000000        0.0000000000
 Au         6.6598000000        2.8838000000        0.0000000000
 Au        11.6546000000        2.8838000000        0.0000000000
 Au         4.1623000000        4.3256000000        0.0000000000
 Au         9.1572000000        4.3256000000        0.0000000000
 Au         6.6598000000        5.7675000000        0.0000000000
 Au        11.6546000000        5.7675000000        0.0000000000
 Au         9.1572000000        7.2094000000        0.0000000000
 Au        14.1520000000        7.2094000000        0.0000000000
 Au         3.3299000000        0.0000000000        2.3546000000
 Au         8.3247000000        0.0000000000        2.3546000000
 Au         5.8273000000        1.4419000000        2.3546000000
 Au        10.8221000000        1.4419000000        2.3546000000
 Au         8.3247000000        2.8838000000        2.3546000000
 Au        13.3195000000        2.8838000000        2.3546000000
 Au         5.8273000000        4.3256000000        2.3546000000
 Au        10.8221000000        4.3256000000        2.3546000000
 Au         8.3247000000        5.7675000000        2.3546000000
 Au        13.3195000000        5.7675000000        2.3546000000
 Au        10.8221000000        7.2094000000        2.3546000000
 Au        15.8169000000        7.2094000000        2.3546000000
 Au         0.0000000000        0.0000000000        4.7091000000
 Au         4.9948000000        0.0000000000        4.7091000000
 Au         2.4974000000        1.4419000000        4.7091000000
 Au         7.4922000000        1.4419000000        4.7091000000
 Au         4.9948000000        2.8838000000        4.7091000000
 Au         9.9896000000        2.8838000000        4.7091000000
 Au         2.4974000000        4.3256000000        4.7091000000
 Au         7.4922000000        4.3256000000        4.7091000000
 Au         4.9948000000        5.7675000000        4.7091000000
 Au         9.9896000000        5.7675000000        4.7091000000
 Au         7.4922000000        7.2094000000        4.7091000000
 Au        12.4870000000        7.2094000000        4.7091000000
  H         3.9669229784        0.6200239724        9.2253457116
  C         4.3490659054        1.5822144739        8.8792364850
  C         3.6440347400        2.7554008118        9.1803706038
  C         4.1569128279        3.9809496802        8.7283430001
  H         3.6197561867        4.9023913252        8.9562584979
  C         5.3443055268        4.0346506430        8.0017943550
  H         5.7359993582        4.9934052056        7.6605751291
  C         6.0436485017        2.8507552874        7.6981801597
  C         5.5307970519        1.6190490664        8.1409999066
  H         6.0650227261        0.6972062000        7.9118139361
  C         2.3397909176        2.6779478765        9.9347943390
  N         2.2086778620        3.6993829085       10.9932898134
  H         1.5074488162        2.8514472014        9.2320713227
  H         2.2099421494        1.6524737168       10.3238731601
  C         0.9323837281        3.6599705296       11.6800604414
  C         3.2083886811        3.6652961228       12.0473799361
  C        -0.5531222437        1.6074474804       18.6541181832
  C         0.1006082503        0.4835315814       19.2970935674
  C        -0.5091413081       -0.7347165046       18.8019422728
  C        -1.5450595058       -0.3669602104       17.8495683626
  C        -1.5668676918        1.0816906361       17.7545413026
  C        -1.7888693859        1.6916044716       16.5166348769
  C        -2.0142358992        0.8908658537       15.3283501416
  C        -2.0013686145       -0.5037880843       15.4216248112
  C        -1.7520844200       -1.1394940562       16.7046491946
  C        -0.9315648564       -2.3113121978       16.4647363160
  C         0.0644236828       -2.6669603647       17.3767300471
  C         0.2805215931       -1.8667468661       18.5697901640
  C         1.7057414618       -1.8257293240       18.8290036026
  C         2.2966269210       -0.6518488269       19.3116070709
  C         1.4823419190        0.5245402061       19.5470067011
  C         2.2529604785        1.6915033247       19.1630041969
  C         3.5473600647        1.2340583496       18.6830637103
  C         3.5783468005       -0.2153572464       18.7810361039
  C         4.2175761911       -0.9648241796       17.7902537927
  C         3.6031839487       -2.1824298083       17.2894531015
  C         2.3730866618       -2.6040026007       17.7984559880
  C         1.3568617057       -3.1224630196       16.8996170505
  C         1.6073259618       -3.1971136467       15.5258870189
  C         0.5741552786       -2.8226885642       14.5780785107
  C        -0.6767910537       -2.3937954913       15.0387187643
  C        -1.3393879646       -1.2797068532       14.3933213407
  C        -0.7242169933       -0.6311139268       13.3149215506
  C        -0.7400145191        0.8175848849       13.2183778186
  C        -1.3844043688        1.5568793002       14.2049700173
  C        -0.7432654774        2.7726366919       14.7105408852
  C         0.4664521309        3.1986565462       14.1886302400
  C         1.0763389031        2.6426696746       12.9022351575
  C         0.5300218911        1.2645692327       12.6602795347
  C         1.3298192249        0.1297557752       12.4728103201
  C         0.5712835361       -1.0672345680       12.8521707380
  C         1.2044214025       -2.1437044207       13.4669323415
  C         2.6439296463       -2.1030857609       13.7273961718
  C         2.8846334151       -2.7557378698       14.9969189818
  C         3.8665350993       -2.2614382936       15.8637024864
  C         4.6427626839       -1.1023639008       15.4808483801
  C         4.8580983265       -0.3007475920       16.6689993534
  C         4.8249032935        1.0935010730       16.5718600585
  C         4.1538194436        1.8694271390       17.5959384152
  C         3.4847939158        2.9786768463       16.9429151577
  C         3.7396517380        2.9008233638       15.5233677011
  C         4.5862702927        1.7312406451       15.2909231745
  C         4.3701350731        0.9653900630       14.1508012282
  C         4.4085783743       -0.4809866719       14.2480732194
  C         3.3872411616       -0.9862709177       13.3623972542
  C         2.7396935379        0.1682587048       12.7279404470
  C         3.3496389458        1.3416095639       13.1825417081
  C         2.6801624647        2.6825386450       13.1896782310
  C         2.7706088537        3.2670494807       14.6019130612
  C         1.4828313227        3.6783551170       15.0774454835
  C         1.2290336224        3.7869218772       16.4651200161
  C         2.2513902977        3.4331405717       17.4167854700
  C         1.6206506983        2.7757855879       18.5450949560
  C         0.1912223985        2.7326153183       18.2857418857
  C        -0.0411414205        3.3635386340       17.0011403837
  C        -1.0028254321        2.8457028026       16.1303682594
  H         4.1891158988        3.3622115410       11.6640545149
  H         3.3044947289        4.6690743123       12.4873761169
  S         7.6363028839        2.9064189831        6.9090590953
  H         0.7121338871        4.6520907622       12.1034293367
  H         0.1154160695        3.3819392002       11.0036962278
Au     0.000000     0.000000     0.000000     R0
Au     8.760000     0.000000     0.000000     R0
Au     4.380000     7.586382     0.000000     R0
Au     13.140000     7.586382     0.000000     R0
Au     2.920000     0.000000     0.000000     R0
Au     11.680000     0.000000     0.000000     R0
Au     7.300000     7.586382     0.000000     R0
Au     16.059999     7.586382     0.000000     R0
Au     5.840000     0.000000     0.000000     R0
Au     10.220000     7.586382     0.000000     R0
Au     1.460000     2.528794     0.000000     R0
Au     10.220000     2.528794     0.000000     R0
Au     5.840000     10.115176     0.000000     R0
Au     14.600000     10.115176     0.000000     R0
Au     4.380000     2.528794     0.000000     R0
Au     13.140000     2.528794     0.000000     R0
Au     8.760000     10.115176     0.000000     R0
Au     17.520000     10.115176     0.000000     R0
Au     7.300000     2.528794     0.000000     R0
Au     11.680000     10.115176     0.000000     R0
Au     2.920000     5.057588     0.000000     R0
Au     11.680000     5.057588     0.000000     R0
Au     5.840000     5.057588     0.000000     R0
Au     14.600000     5.057588     0.000000     R0
Au     8.760000     5.057588     0.000000     R0
Au     1.460000     0.842931     2.384170     R0
Au     10.220000     0.842931     2.384170     R0
Au     5.840000     8.429314     2.384170     R0
Au     14.600000     8.429314     2.384170     R0
Au     4.380000     0.842931     2.384170     R0
Au     13.140000     0.842931     2.384170     R0
Au     8.760000     8.429314     2.384170     R0
Au     17.520000     8.429314     2.384170     R0
Au     7.300000     0.842931     2.384170     R0
Au     11.680000     8.429314     2.384170     R0
Au     2.920000     3.371726     2.384170     R0
Au     11.680000     3.371726     2.384170     R0
Au     7.300000     10.958108     2.384170     R0
Au     16.059999     10.958108     2.384170     R0
Au     5.840000     3.371726     2.384170     R0
Au     14.600000     3.371726     2.384170     R0
Au     10.220000     10.958108     2.384170     R0
Au     18.980000     10.958108     2.384170     R0
Au     8.760000     3.371726     2.384170     R0
Au     13.140000     10.958108     2.384170     R0
Au     4.380000     5.900520     2.384170     R0
Au     13.140000     5.900520     2.384170     R0
Au     7.300000     5.900520     2.384170     R0
Au     16.059999     5.900520     2.384170     R0
Au     10.220000     5.900520     2.384170     R0
Au     8.760000     1.685863     4.768340     R0
Au     13.140000     9.272245     4.768340     R0
Au     2.920000     1.685863     4.768340     R0
Au     11.680000     1.685863     4.768340     R0
Au     7.300000     9.272245     4.768340     R0
Au     16.059999     9.272245     4.768340     R0
Au     5.840000     1.685863     4.768340     R0
Au     14.600000     1.685863     4.768340     R0
Au     10.220000     9.272245     4.768340     R0
Au     18.980000     9.272245     4.768340     R0
Au     10.220000     4.214657     4.768340     R0
Au     14.600000     11.801040     4.768340     R0
Au     4.380000     4.214657     4.768340     R0
Au     13.140000     4.214657     4.768340     R0
Au     8.760000     11.801040     4.768340     R0
Au     17.520000     11.801040     4.768340     R0
Au     7.300000     4.214657     4.768340     R0
Au     16.059999     4.214657     4.768340     R0
Au     11.680000     11.801040     4.768340     R0
Au     20.440001     11.801040     4.768340     R0
Au     11.680000     6.743451     4.768340     R0
Au     5.840000     6.743451     4.768340     R0
Au     14.600000     6.743451     4.768340     R0
Au     8.760000     6.743451     4.768340     R0
Au     17.520000     6.743451     4.768340     R0
Au     0.000000     0.000000     7.152510     R0
Au     8.760000     0.000000     7.152510     R1
Au     4.380000     7.586382     7.152510     R1
Au     13.140000     7.586382     7.152510     R1
Au     2.920000     0.000000     7.152510     R1
Au     11.680000     0.000000     7.152510     R1
Au     7.300000     7.586382     7.152510     R1
Au     16.059999     7.586382     7.152510     R1
Au     5.840000     0.000000     7.152510     R1
Au     10.220000     7.586382     7.152510     R1
Au     1.460000     2.528794     7.152510     R1
Au     10.220000     2.528794     7.152510     R1
Au     5.840000     10.115176     7.152510     R1
Au     14.600000     10.115176     7.152510     R1
Au     4.380000     2.528794     7.152510     R1
Au     13.140000     2.528794     7.152510     R1
Au     8.760000     10.115176     7.152510     R1
Au     17.520000     10.115176     7.152510     R1
Au     7.300000     2.528794     7.152510     R1
Au     11.680000     10.115176     7.152510     R1
Au     2.920000     5.057588     7.152510     R1
Au     11.680000     5.057588     7.152510     R1
Au     5.840000     5.057588     7.152510     R1
Au     14.600000     5.057588     7.152510     R1
Au     8.760000     5.057588     7.152510     R1
Au     1.460000     0.842931     9.536680     R1
Au     10.220000     0.842931     9.536680     R1
Au     5.840000     8.429314     9.536680     R1
Au     14.600000     8.429314     9.536680     R1
Au     4.380000     0.842931     9.536680     R1
Au     13.140000     0.842931     9.536680     R1
Au     8.760000     8.429314     9.536680     R1
Au     17.520000     8.429314     9.536680     R1
Au     7.300000     0.842931     9.536680     R1
Au     11.680000     8.429314     9.536680     R1
Au     2.920000     3.371726     9.536680     R1
Au     11.680000     3.371726     9.536680     R1
Au     7.300000     10.958108     9.536680     R1
Au     16.059999     10.958108     9.536680     R1
Au     5.840000     3.371726     9.536680     R1
Au     14.600000     3.371726     9.536680     R1
Au     10.220000     10.958108     9.536680     R1
Au     18.980000     10.958108     9.536680     R1
Au     8.760000     3.371726     9.536680     R1
Au     13.140000     10.958108     9.536680     R1
Au     4.380000     5.900520     9.536680     R1
Au     13.140000     5.900520     9.536680     R1
Au     7.300000     5.900520     9.536680     R1
Au     16.059999     5.900520     9.536680     R1
Au     10.220000     5.900520     9.536680     R1
Au     8.760000     1.685863     11.920850     R1
Au     13.140000     9.272245     11.920850     R1
Au     2.920000     1.685863     11.920850     R1
Au     11.680000     1.685863     11.920850     R1
Au     7.300000     9.272245     11.920850     R1
Au     16.059999     9.272245     11.920850     R1
Au     5.840000     1.685863     11.920850     R1
Au     14.600000     1.685863     11.920850     R1
Au     10.220000     9.272245     11.920850     R1
Au     18.980000     9.272245     11.920850     R1
Au     10.220000     4.214657     11.920850     R1
Au     14.600000     11.801040     11.920850     R1
Au     4.380000     4.214657     11.920850     R1
Au     13.140000     4.214657     11.920850     R1
Au     8.760000     11.801040     11.920850     R1
Au     17.520000     11.801040     11.920850     R1
Au     7.300000     4.214657     11.920850     R1
Au     16.059999     4.214657     11.920850     R1
Au     11.680000     11.801040     11.920850     R1
Au     20.440001     11.801040     11.920850     R1
Au     11.680000     6.743451     11.920850     R1
Au     5.840000     6.743451     11.920850     R1
Au     14.600000     6.743451     11.920850     R1
Au     8.760000     6.743451     11.920850     R1
Au     17.520000     6.743451     11.920850     R1
Au     0.000000     0.000000     14.305019     R1
Au     8.760000     0.000000     14.305019     R2
Au     4.380000     7.586382     14.305019     R2
Au     13.140000     7.586382     14.305019     R2
Au     2.920000     0.000000     14.305019     R2
Au     11.680000     0.000000     14.305019     R2
Au     7.300000     7.586382     14.305019     R2
Au     16.059999     7.586382     14.305019     R2
Au     5.840000     0.000000     14.305019     R2
Au     10.220000     7.586382     14.305019     R2
Au     1.460000     2.528794     14.305019     R2
Au     10.220000     2.528794     14.305019     R2
Au     5.840000     10.115176     14.305019     R2
Au     14.600000     10.115176     14.305019     R2
Au     4.380000     2.528794     14.305019     R2
Au     13.140000     2.528794     14.305019     R2
Au     8.760000     10.115176     14.305019     R2
Au     17.520000     10.115176     14.305019     R2
Au     7.300000     2.528794     14.305019     R2
Au     11.680000     10.115176     14.305019     R2
Au     2.920000     5.057588     14.305019     R2
Au     11.680000     5.057588     14.305019     R2
Au     5.840000     5.057588     14.305019     R2
Au     14.600000     5.057588     14.305019     R2
Au     8.760000     5.057588     14.305019     R2
Au     1.460000     0.842931     16.689190     R2
Au     10.220000     0.842931     16.689190     R2
Au     5.840000     8.429314     16.689190     R2
Au     14.600000     8.429314     16.689190     R2
Au     4.380000     0.842931     16.689190     R2
Au     13.140000     0.842931     16.689190     R2
Au     8.760000     8.429314     16.689190     R2
Au     17.520000     8.429314     16.689190     R2
Au     7.300000     0.842931     16.689190     R2
Au     11.680000     8.429314     16.689190     R2
Au     2.920000     3.371726     16.689190     R2
Au     11.680000     3.371726     16.689190     R2
Au     7.300000     10.958108     16.689190     R2
Au     16.059999     10.958108     16.689190     R2
Au     5.840000     3.371726     16.689190     R2
Au     14.600000     3.371726     16.689190     R2
Au     10.220000     10.958108     16.689190     R2
Au     18.980000     10.958108     16.689190     R2
Au     8.760000     3.371726     16.689190     R2
Au     13.140000     10.958108     16.689190     R2
Au     4.380000     5.900520     16.689190     R2
Au     13.140000     5.900520     16.689190     R2
Au     7.300000     5.900520     16.689190     R2
Au     16.059999     5.900520     16.689190     R2
Au     10.220000     5.900520     16.689190     R2
Au     8.760000     1.685863     19.073360     R2
Au     13.140000     9.272245     19.073360     R2
Au     2.920000     1.685863     19.073360     R2
Au     11.680000     1.685863     19.073360     R2
Au     7.300000     9.272245     19.073360     R2
Au     16.059999     9.272245     19.073360     R2
Au     5.840000     1.685863     19.073360     R2
Au     14.600000     1.685863     19.073360     R2
Au     10.220000     9.272245     19.073360     R2
Au     18.980000     9.272245     19.073360     R2
Au     10.220000     4.214657     19.073360     R2
Au     14.600000     11.801040     19.073360     R2
Au     4.380000     4.214657     19.073360     R2
Au     13.140000     4.214657     19.073360     R2
Au     8.760000     11.801040     19.073360     R2
Au     17.520000     11.801040     19.073360     R2
Au     7.300000     4.214657     19.073360     R2
Au     16.059999     4.214657     19.073360     R2
Au     11.680000     11.801040     19.073360     R2
Au     20.440001     11.801040     19.073360     R2
Au     11.680000     6.743451     19.073360     R2
Au     5.840000     6.743451     19.073360     R2
Au     14.600000     6.743451     19.073360     R2
Au     8.760000     6.743451     19.073360     R2
Au     17.520000     6.743451     19.073360     R2
Au     0.000000     0.000000     21.457529     R2
Au     8.760000     0.000000     21.457529     R3
Au     4.380000     7.586382     21.457529     R3
Au     13.140000     7.586382     21.457529     R3
Au     2.920000     0.000000     21.457529     R3
Au     11.680000     0.000000     21.457529     R3
Au     7.300000     7.586382     21.457529     R3
Au     16.059999     7.586382     21.457529     R3
Au     5.840000     0.000000     21.457529     R3
Au     10.220000     7.586382     21.457529     R3
Au     1.460000     2.528794     21.457529     R3
Au     10.220000     2.528794     21.457529     R3
Au     5.840000     10.115176     21.457529     R3
Au     14.600000     10.115176     21.457529     R3
Au     4.380000     2.528794     21.457529     R3
Au     13.140000     2.528794     21.457529     R3
Au     8.760000     10.115176     21.457529     R3
Au     17.520000     10.115176     21.457529     R3
Au     7.300000     2.528794     21.457529     R3
Au     11.680000     10.115176     21.457529     R3
Au     2.920000     5.057588     21.457529     R3
Au     11.680000     5.057588     21.457529     R3
Au     5.840000     5.057588     21.457529     R3
Au     14.600000     5.057588     21.457529     R3
Au     8.760000     5.057588     21.457529     R3
Au     1.460000     0.842931     23.841700     R3
Au     10.220000     0.842931     23.841700     R3
Au     5.840000     8.429314     23.841700     R3
Au     14.600000     8.429314     23.841700     R3
Au     4.380000     0.842931     23.841700     R3
Au     13.140000     0.842931     23.841700     R3
Au     8.760000     8.429314     23.841700     R3
Au     17.520000     8.429314     23.841700     R3
Au     7.300000     0.842931     23.841700     R3
Au     11.680000     8.429314     23.841700     R3
Au     2.920000     3.371726     23.841700     R3
Au     11.680000     3.371726     23.841700     R3
Au     7.300000     10.958108     23.841700     R3
Au     16.059999     10.958108     23.841700     R3
Au     5.840000     3.371726     23.841700     R3
Au     14.600000     3.371726     23.841700     R3
Au     10.220000     10.958108     23.841700     R3
Au     18.980000     10.958108     23.841700     R3
Au     8.760000     3.371726     23.841700     R3
Au     13.140000     10.958108     23.841700     R3
Au     4.380000     5.900520     23.841700     R3
Au     13.140000     5.900520     23.841700     R3
Au     7.300000     5.900520     23.841700     R3
Au     16.059999     5.900520     23.841700     R3
Au     10.220000     5.900520     23.841700     R3
Au     8.760000     1.685863     26.225870     R3
Au     13.140000     9.272245     26.225870     R3
Au     2.920000     1.685863     26.225870     R3
Au     11.680000     1.685863     26.225870     R3
Au     7.300000     9.272245     26.225870     R3
Au     16.059999     9.272245     26.225870     R3
Au     5.840000     1.685863     26.225870     R3
Au     14.600000     1.685863     26.225870     R3
Au     10.220000     9.272245     26.225870     R3
Au     18.980000     9.272245     26.225870     R3
Au     10.220000     4.214657     26.225870     R3
Au     14.600000     11.801040     26.225870     R3
Au     4.380000     4.214657     26.225870     R3
Au     13.140000     4.214657     26.225870     R3
Au     8.760000     11.801040     26.225870     R3
Au     17.520000     11.801040     26.225870     R3
Au     7.300000     4.214657     26.225870     R3
Au     16.059999     4.214657     26.225870     R3
Au     11.680000     11.801040     26.225870     R3
Au     20.440001     11.801040     26.225870     R3
Au     11.680000     6.743451     26.225870     R3
Au     5.840000     6.743451     26.225870     R3
Au     14.600000     6.743451     26.225870     R3
Au     8.760000     6.743451     26.225870     R3
Au     17.520000     6.743451     26.225870     R3