    682
 i =      402, E =     -1614.5588022613
Au     0.000000     0.000000     0.000000     L3
Au     8.760000     0.000000     0.000000     L3
Au     4.380000     7.586382     0.000000     L3
Au     13.140000     7.586382     0.000000     L3
Au     2.920000     0.000000     0.000000     L3
Au     11.680000     0.000000     0.000000     L3
Au     7.300000     7.586382     0.000000     L3
Au     16.059999     7.586382     0.000000     L3
Au     5.840000     0.000000     0.000000     L3
Au     10.220000     7.586382     0.000000     L3
Au     1.460000     2.528794     0.000000     L3
Au     10.220000     2.528794     0.000000     L3
Au     5.840000     10.115176     0.000000     L3
Au     14.600000     10.115176     0.000000     L3
Au     4.380000     2.528794     0.000000     L3
Au     13.140000     2.528794     0.000000     L3
Au     8.760000     10.115176     0.000000     L3
Au     17.520000     10.115176     0.000000     L3
Au     7.300000     2.528794     0.000000     L3
Au     11.680000     10.115176     0.000000     L3
Au     2.920000     5.057588     0.000000     L3
Au     11.680000     5.057588     0.000000     L3
Au     5.840000     5.057588     0.000000     L3
Au     14.600000     5.057588     0.000000     L3
Au     8.760000     5.057588     0.000000     L3
Au     1.460000     0.842931     2.384170     L3
Au     10.220000     0.842931     2.384170     L3
Au     5.840000     8.429314     2.384170     L3
Au     14.600000     8.429314     2.384170     L3
Au     4.380000     0.842931     2.384170     L3
Au     13.140000     0.842931     2.384170     L3
Au     8.760000     8.429314     2.384170     L3
Au     17.520000     8.429314     2.384170     L3
Au     7.300000     0.842931     2.384170     L3
Au     11.680000     8.429314     2.384170     L3
Au     2.920000     3.371726     2.384170     L3
Au     11.680000     3.371726     2.384170     L3
Au     7.300000     10.958108     2.384170     L3
Au     16.059999     10.958108     2.384170     L3
Au     5.840000     3.371726     2.384170     L3
Au     14.600000     3.371726     2.384170     L3
Au     10.220000     10.958108     2.384170     L3
Au     18.980000     10.958108     2.384170     L3
Au     8.760000     3.371726     2.384170     L3
Au     13.140000     10.958108     2.384170     L3
Au     4.380000     5.900520     2.384170     L3
Au     13.140000     5.900520     2.384170     L3
Au     7.300000     5.900520     2.384170     L3
Au     16.059999     5.900520     2.384170     L3
Au     10.220000     5.900520     2.384170     L3
Au     8.760000     1.685863     4.768340     L3
Au     13.140000     9.272245     4.768340     L3
Au     2.920000     1.685863     4.768340     L3
Au     11.680000     1.685863     4.768340     L3
Au     7.300000     9.272245     4.768340     L3
Au     16.059999     9.272245     4.768340     L3
Au     5.840000     1.685863     4.768340     L3
Au     14.600000     1.685863     4.768340     L3
Au     10.220000     9.272245     4.768340     L3
Au     18.980000     9.272245     4.768340     L3
Au     10.220000     4.214657     4.768340     L3
Au     14.600000     11.801040     4.768340     L3
Au     4.380000     4.214657     4.768340     L3
Au     13.140000     4.214657     4.768340     L3
Au     8.760000     11.801040     4.768340     L3
Au     17.520000     11.801040     4.768340     L3
Au     7.300000     4.214657     4.768340     L3
Au     16.059999     4.214657     4.768340     L3
Au     11.680000     11.801040     4.768340     L3
Au     20.440001     11.801040     4.768340     L3
Au     11.680000     6.743451     4.768340     L3
Au     5.840000     6.743451     4.768340     L3
Au     14.600000     6.743451     4.768340     L3
Au     8.760000     6.743451     4.768340     L3
Au     17.520000     6.743451     4.768340     L3
Au     0.000000     0.000000     7.152510     L2
Au     8.760000     0.000000     7.152510     L2
Au     4.380000     7.586382     7.152510     L2
Au     13.140000     7.586382     7.152510     L2
Au     2.920000     0.000000     7.152510     L2
Au     11.680000     0.000000     7.152510     L2
Au     7.300000     7.586382     7.152510     L2
Au     16.059999     7.586382     7.152510     L2
Au     5.840000     0.000000     7.152510     L2
Au     10.220000     7.586382     7.152510     L2
Au     1.460000     2.528794     7.152510     L2
Au     10.220000     2.528794     7.152510     L2
Au     5.840000     10.115176     7.152510     L2
Au     14.600000     10.115176     7.152510     L2
Au     4.380000     2.528794     7.152510     L2
Au     13.140000     2.528794     7.152510     L2
Au     8.760000     10.115176     7.152510     L2
Au     17.520000     10.115176     7.152510     L2
Au     7.300000     2.528794     7.152510     L2
Au     11.680000     10.115176     7.152510     L2
Au     2.920000     5.057588     7.152510     L2
Au     11.680000     5.057588     7.152510     L2
Au     5.840000     5.057588     7.152510     L2
Au     14.600000     5.057588     7.152510     L2
Au     8.760000     5.057588     7.152510     L2
Au     1.460000     0.842931     9.536680     L2
Au     10.220000     0.842931     9.536680     L2
Au     5.840000     8.429314     9.536680     L2
Au     14.600000     8.429314     9.536680     L2
Au     4.380000     0.842931     9.536680     L2
Au     13.140000     0.842931     9.536680     L2
Au     8.760000     8.429314     9.536680     L2
Au     17.520000     8.429314     9.536680     L2
Au     7.300000     0.842931     9.536680     L2
Au     11.680000     8.429314     9.536680     L2
Au     2.920000     3.371726     9.536680     L2
Au     11.680000     3.371726     9.536680     L2
Au     7.300000     10.958108     9.536680     L2
Au     16.059999     10.958108     9.536680     L2
Au     5.840000     3.371726     9.536680     L2
Au     14.600000     3.371726     9.536680     L2
Au     10.220000     10.958108     9.536680     L2
Au     18.980000     10.958108     9.536680     L2
Au     8.760000     3.371726     9.536680     L2
Au     13.140000     10.958108     9.536680     L2
Au     4.380000     5.900520     9.536680     L2
Au     13.140000     5.900520     9.536680     L2
Au     7.300000     5.900520     9.536680     L2
Au     16.059999     5.900520     9.536680     L2
Au     10.220000     5.900520     9.536680     L2
Au     8.760000     1.685863     11.920850     L2
Au     13.140000     9.272245     11.920850     L2
Au     2.920000     1.685863     11.920850     L2
Au     11.680000     1.685863     11.920850     L2
Au     7.300000     9.272245     11.920850     L2
Au     16.059999     9.272245     11.920850     L2
Au     5.840000     1.685863     11.920850     L2
Au     14.600000     1.685863     11.920850     L2
Au     10.220000     9.272245     11.920850     L2
Au     18.980000     9.272245     11.920850     L2
Au     10.220000     4.214657     11.920850     L2
Au     14.600000     11.801040     11.920850     L2
Au     4.380000     4.214657     11.920850     L2
Au     13.140000     4.214657     11.920850     L2
Au     8.760000     11.801040     11.920850     L2
Au     17.520000     11.801040     11.920850     L2
Au     7.300000     4.214657     11.920850     L2
Au     16.059999     4.214657     11.920850     L2
Au     11.680000     11.801040     11.920850     L2
Au     20.440001     11.801040     11.920850     L2
Au     11.680000     6.743451     11.920850     L2
Au     5.840000     6.743451     11.920850     L2
Au     14.600000     6.743451     11.920850     L2
Au     8.760000     6.743451     11.920850     L2
Au     17.520000     6.743451     11.920850     L2
Au     0.000000     0.000000     14.305019     L1
Au     8.760000     0.000000     14.305019     L1
Au     4.380000     7.586382     14.305019     L1
Au     13.140000     7.586382     14.305019     L1
Au     2.920000     0.000000     14.305019     L1
Au     11.680000     0.000000     14.305019     L1
Au     7.300000     7.586382     14.305019     L1
Au     16.059999     7.586382     14.305019     L1
Au     5.840000     0.000000     14.305019     L1
Au     10.220000     7.586382     14.305019     L1
Au     1.460000     2.528794     14.305019     L1
Au     10.220000     2.528794     14.305019     L1
Au     5.840000     10.115176     14.305019     L1
Au     14.600000     10.115176     14.305019     L1
Au     4.380000     2.528794     14.305019     L1
Au     13.140000     2.528794     14.305019     L1
Au     8.760000     10.115176     14.305019     L1
Au     17.520000     10.115176     14.305019     L1
Au     7.300000     2.528794     14.305019     L1
Au     11.680000     10.115176     14.305019     L1
Au     2.920000     5.057588     14.305019     L1
Au     11.680000     5.057588     14.305019     L1
Au     5.840000     5.057588     14.305019     L1
Au     14.600000     5.057588     14.305019     L1
Au     8.760000     5.057588     14.305019     L1
Au     1.460000     0.842931     16.689190     L1
Au     10.220000     0.842931     16.689190     L1
Au     5.840000     8.429314     16.689190     L1
Au     14.600000     8.429314     16.689190     L1
Au     4.380000     0.842931     16.689190     L1
Au     13.140000     0.842931     16.689190     L1
Au     8.760000     8.429314     16.689190     L1
Au     17.520000     8.429314     16.689190     L1
Au     7.300000     0.842931     16.689190     L1
Au     11.680000     8.429314     16.689190     L1
Au     2.920000     3.371726     16.689190     L1
Au     11.680000     3.371726     16.689190     L1
Au     7.300000     10.958108     16.689190     L1
Au     16.059999     10.958108     16.689190     L1
Au     5.840000     3.371726     16.689190     L1
Au     14.600000     3.371726     16.689190     L1
Au     10.220000     10.958108     16.689190     L1
Au     18.980000     10.958108     16.689190     L1
Au     8.760000     3.371726     16.689190     L1
Au     13.140000     10.958108     16.689190     L1
Au     4.380000     5.900520     16.689190     L1
Au     13.140000     5.900520     16.689190     L1
Au     7.300000     5.900520     16.689190     L1
Au     16.059999     5.900520     16.689190     L1
Au     10.220000     5.900520     16.689190     L1
Au     8.760000     1.685863     19.073360     L1
Au     13.140000     9.272245     19.073360     L1
Au     2.920000     1.685863     19.073360     L1
Au     11.680000     1.685863     19.073360     L1
Au     7.300000     9.272245     19.073360     L1
Au     16.059999     9.272245     19.073360     L1
Au     5.840000     1.685863     19.073360     L1
Au     14.600000     1.685863     19.073360     L1
Au     10.220000     9.272245     19.073360     L1
Au     18.980000     9.272245     19.073360     L1
Au     10.220000     4.214657     19.073360     L1
Au     14.600000     11.801040     19.073360     L1
Au     4.380000     4.214657     19.073360     L1
Au     13.140000     4.214657     19.073360     L1
Au     8.760000     11.801040     19.073360     L1
Au     17.520000     11.801040     19.073360     L1
Au     7.300000     4.214657     19.073360     L1
Au     16.059999     4.214657     19.073360     L1
Au     11.680000     11.801040     19.073360     L1
Au     20.440001     11.801040     19.073360     L1
Au     11.680000     6.743451     19.073360     L1
Au     5.840000     6.743451     19.073360     L1
Au     14.600000     6.743451     19.073360     L1
Au     8.760000     6.743451     19.073360     L1
Au     17.520000     6.743451     19.073360     L1
Au    0.0000000000    0.0000000000    21.457530000000002    L0
Au    8.7600000000    0.0000000000    21.457530000000002    L0
Au    4.3800000000    7.5863820000    21.457530000000002    L0
Au    13.1400000000    7.5863820000    21.457530000000002    L0
Au    2.9200000000    0.0000000000    21.457530000000002    L0
Au    11.6800000000    0.0000000000    21.457530000000002    L0
Au    7.3000000000    7.5863820000    21.457530000000002    L0
Au    16.0599990000    7.5863820000    21.457530000000002    L0
Au    5.8400000000    0.0000000000    21.457530000000002    L0
Au    10.2200000000    7.5863820000    21.457530000000002    L0
Au    1.4600000000    2.5287940000    21.457530000000002    L0
Au    10.2200000000    2.5287940000    21.457530000000002    L0
Au    5.8400000000    10.1151760000    21.457530000000002    L0
Au    14.6000000000    10.1151760000    21.457530000000002    L0
Au    4.3800000000    2.5287940000    21.457530000000002    L0
Au    13.1400000000    2.5287940000    21.457530000000002    L0
Au    8.7600000000    10.1151760000    21.457530000000002    L0
Au    17.5200000000    10.1151760000    21.457530000000002    L0
Au    7.3000000000    2.5287940000    21.457530000000002    L0
Au    11.6800000000    10.1151760000    21.457530000000002    L0
Au    2.9200000000    5.0575880000    21.457530000000002    L0
Au    11.6800000000    5.0575880000    21.457530000000002    L0
Au    5.8400000000    5.0575880000    21.457530000000002    L0
Au    14.6000000000    5.0575880000    21.457530000000002    L0
Au    8.7600000000    5.0575880000    21.457530000000002    L0
Au    1.4600000000    0.8429310000    23.841700000000003    L0
Au    10.2200000000    0.8429310000    23.841700000000003    L0
Au    5.8400000000    8.4293140000    23.841700000000003    L0
Au    14.6000000000    8.4293140000    23.841700000000003    L0
Au    4.3800000000    0.8429310000    23.841700000000003    L0
Au    13.1400000000    0.8429310000    23.841700000000003    L0
Au    8.7600000000    8.4293140000    23.841700000000003    L0
Au    17.5200000000    8.4293140000    23.841700000000003    L0
Au    7.3000000000    0.8429310000    23.841700000000003    L0
Au    11.6800000000    8.4293140000    23.841700000000003    L0
Au    2.9200000000    3.3717260000    23.841700000000003    L0
Au    11.6800000000    3.3717260000    23.841700000000003    L0
Au    7.3000000000    10.9581080000    23.841700000000003    L0
Au    16.0599990000    10.9581080000    23.841700000000003    L0
Au    5.8400000000    3.3717260000    23.841700000000003    L0
Au    14.6000000000    3.3717260000    23.841700000000003    L0
Au    10.2200000000    10.9581080000    23.841700000000003    L0
Au    18.9800000000    10.9581080000    23.841700000000003    L0
Au    8.7600000000    3.3717260000    23.841700000000003    L0
Au    13.1400000000    10.9581080000    23.841700000000003    L0
Au    4.3800000000    5.9005200000    23.841700000000003    L0
Au    13.1400000000    5.9005200000    23.841700000000003    L0
Au    7.3000000000    5.9005200000    23.841700000000003    L0
Au    16.0599990000    5.9005200000    23.841700000000003    L0
Au    10.2200000000    5.9005200000    23.841700000000003    L0
Au    8.7600000000    1.6858630000    26.22587    L0
Au    13.1400000000    9.2722450000    26.22587    L0
Au    2.9200000000    1.6858630000    26.22587    L0
Au    11.6800000000    1.6858630000    26.22587    L0
Au    7.3000000000    9.2722450000    26.22587    L0
Au    16.0599990000    9.2722450000    26.22587    L0
Au    5.8400000000    1.6858630000    26.22587    L0
Au    14.6000000000    1.6858630000    26.22587    L0
Au    10.2200000000    9.2722450000    26.22587    L0
Au    18.9800000000    9.2722450000    26.22587    L0
Au    10.2200000000    4.2146570000    26.22587    L0
Au    14.6000000000    11.8010400000    26.22587    L0
Au    4.3800000000    4.2146570000    26.22587    L0
Au    13.1400000000    4.2146570000    26.22587    L0
Au    8.7600000000    11.8010400000    26.22587    L0
Au    17.5200000000    11.8010400000    26.22587    L0
Au    7.3000000000    4.2146570000    26.22587    L0
Au    16.0599990000    4.2146570000    26.22587    L0
Au    11.6800000000    11.8010400000    26.22587    L0
Au    20.4400010000    11.8010400000    26.22587    L0
Au    11.6800000000    6.7434510000    26.22587    L0
Au    5.8400000000    6.7434510000    26.22587    L0
Au    14.6000000000    6.7434510000    26.22587    L0
Au    8.7600000000    6.7434510000    26.22587    L0
Au    17.5200000000    6.7434510000    26.22587    L0
H    10.4475724838    3.7008488247    32.9819859324    S
C    10.2637613281    4.3343032189    32.112294323300006    S
C    10.4709567608    5.7164758927    32.2065091814    S
C    10.2222938555    6.5121743759    31.074651976400002    S
H    10.3736177524    7.5914571866    31.132496370400002    S
C    9.7809941549    5.9449865016    29.8816120152    S
H    9.5970122902    6.5741830124    29.0091834177    S
C    9.5772992344    4.5573743056    29.7991222029    S
C    9.8242660069    3.7527575597    30.9255511753    S
H    9.6685788723    2.6756050008    30.8651517359    S
C    10.9637820507    6.3175535393    33.4984351246    S
N    10.0096429058    7.2776707236    34.0989854293    S
H    11.8905407000    6.8839270017    33.3127546141    S
H    11.2250822924    5.5027788137    34.197578155    S
C    10.4595774335    7.8324132440    35.3601874752    S
C    8.6650871517    6.7941872315    34.3491765112    S
C    7.6394746129    6.8239917112    42.145075197500006    S
C    7.1699339488    5.5343555089    42.614125024    S
C    8.3257363803    4.7353841239    42.97109351740001    S
C    9.5185121676    5.5309699366    42.7251067301    S
C    9.0925983380    6.8208290473    42.2082294686    S
C    9.8375934599    7.4499922779    41.2065225059    S
C    11.0413669722    6.8271001941    40.6874929504    S
C    11.4549033458    5.5863697458    41.1905520472    S
C    10.6731632709    4.9258477650    42.2229549013    S
C    10.6833983903    3.4975893562    41.9456657721    S
C    9.5372024482    2.7323254305    42.1796970075    S
C    8.3355759404    3.3613733496    42.7037675234    S
C    7.1892659505    2.7357459432    42.0745129842    S
C    6.0702963590    3.5043812850    41.7328969907    S
C    6.0593980810    4.9282919377    42.004636241200004    S
C    5.3837250452    5.5928054564    40.9066265649    S
C    4.9787049686    4.5754339269    39.949391006300004    S
C    5.3975130059    3.2816242988    40.462444096300004    S
C    5.8655474992    2.3014018388    39.5838871456    S
C    7.0281193571    1.5018584883    39.9394845792    S
C    7.6772799728    1.7171495764    41.158772353    S
C    9.1290380523    1.7178951713    41.222570332100005    S
C    9.8790381611    1.5127140743    40.0603659271    S
C    11.0668419561    2.3126524044    39.81372689    S
C    11.4671924317    3.2835233489    40.741950005700005    S
C    11.9432019872    4.5722358282    40.276800943    S
C    11.9983627351    4.8414246331    38.90342473130001    S
C    11.5691320770    6.1273063758    38.3829978486    S
C    11.1115500482    7.1014170214    39.264277526200004    S
C    9.9285955164    7.8868986986    38.897221931100006    S
C    9.3005516559    7.6858299219    37.677844326400006    S
C    9.9166324789    6.8857877176    36.529127560800006    S
C    10.9186493442    5.9198408135    37.094196474300006    S
C    10.8937957852    4.5397595197    36.8541512034    S
C    11.5742134643    3.8428256839    37.9519036541    S
C    11.1227009606    2.6043259524    38.3963494917    S
C    9.9655169133    1.9712568281    37.7608867817    S
C    9.2048006194    1.2954970886    38.79176105250001    S
C    7.8042510362    1.2824777504    38.7316880917    S
C    7.1249811005    1.9409272673    37.6320723472    S
C    5.9277873580    2.5691889455    38.1563343406    S
C    5.5296077106    3.8187483277    37.6618202793    S
C    5.0502216426    4.8372305461    38.5779665754    S
C    5.5373275591    6.1247131852    38.1127222593    S
C    6.3145827852    5.9145940977    36.9116707213    S
C    6.3021953764    4.4763787223    36.624666671600004    S
C    7.4585201413    3.8824876483    36.1297177093    S
C    7.8710677598    2.5867851157    36.638106621800006    S
C    9.3127799514    2.6055386458    36.7094057469    S
C    9.7622447897    3.9192071934    36.2324391049    S
C    8.6478305299    4.6783143142    35.857649648800006    S
C    8.6300429721    6.1767842520    35.822763845500006    S
C    7.4465254759    6.6748306386    36.6557861137    S
C    7.8679817886    7.6492437760    37.6211786709    S
C    7.0993979899    7.8881830151    38.784418281300006    S
C    5.9101083697    7.1096631957    39.033741527400004    S
C    5.8349005792    6.8381799423    40.4571108267    S
C    6.9850812540    7.4659869363    41.088463745300004    S
C    7.7578070359    8.1182604768    40.0481831435    S
C    9.1557458766    8.0993114289    40.100184787    S
H    8.3460659775    6.0721405764    33.5896079922    S
H    7.9664323819    7.6445135671    34.3324661548    S
S    8.9631576579    3.7022202227    28.369702990200004    S
H    10.0073112020    8.8252166862    35.5086323964    S
H    11.5503369805    7.9408114706    35.3901495455    S
Au    7.30000   4.21466    45.97109    R0
Au    0.000000    0.000000    48.355259999999994    R0
Au    8.760000    0.000000    48.355259999999994    R0
Au    4.380000    7.586382    48.355259999999994    R0
Au    13.140000    7.586382    48.355259999999994    R0
Au    2.920000    0.000000    48.355259999999994    R0
Au    11.680000    0.000000    48.355259999999994    R0
Au    7.300000    7.586382    48.355259999999994    R0
Au    16.059999    7.586382    48.355259999999994    R0
Au    5.840000    0.000000    48.355259999999994    R0
Au    10.220000    7.586382    48.355259999999994    R0
Au    1.460000    2.528794    48.355259999999994    R0
Au    10.220000    2.528794    48.355259999999994    R0
Au    5.840000    10.115176    48.355259999999994    R0
Au    14.600000    10.115176    48.355259999999994    R0
Au    4.380000    2.528794    48.355259999999994    R0
Au    13.140000    2.528794    48.355259999999994    R0
Au    8.760000    10.115176    48.355259999999994    R0
Au    17.520000    10.115176    48.355259999999994    R0
Au    7.300000    2.528794    48.355259999999994    R0
Au    11.680000    10.115176    48.355259999999994    R0
Au    2.920000    5.057588    48.355259999999994    R0
Au    11.680000    5.057588    48.355259999999994    R0
Au    5.840000    5.057588    48.355259999999994    R0
Au    14.600000    5.057588    48.355259999999994    R0
Au    8.760000    5.057588    48.355259999999994    R0
Au    1.460000    0.842931    50.73942999999999    R0
Au    10.220000    0.842931    50.73942999999999    R0
Au    5.840000    8.429314    50.73942999999999    R0
Au    14.600000    8.429314    50.73942999999999    R0
Au    4.380000    0.842931    50.73942999999999    R0
Au    13.140000    0.842931    50.73942999999999    R0
Au    8.760000    8.429314    50.73942999999999    R0
Au    17.520000    8.429314    50.73942999999999    R0
Au    7.300000    0.842931    50.73942999999999    R0
Au    11.680000    8.429314    50.73942999999999    R0
Au    2.920000    3.371726    50.73942999999999    R0
Au    11.680000    3.371726    50.73942999999999    R0
Au    7.300000    10.958108    50.73942999999999    R0
Au    16.059999    10.958108    50.73942999999999    R0
Au    5.840000    3.371726    50.73942999999999    R0
Au    14.600000    3.371726    50.73942999999999    R0
Au    10.220000    10.958108    50.73942999999999    R0
Au    18.980000    10.958108    50.73942999999999    R0
Au    8.760000    3.371726    50.73942999999999    R0
Au    13.140000    10.958108    50.73942999999999    R0
Au    4.380000    5.900520    50.73942999999999    R0
Au    13.140000    5.900520    50.73942999999999    R0
Au    7.300000    5.900520    50.73942999999999    R0
Au    16.059999    5.900520    50.73942999999999    R0
Au    10.220000    5.900520    50.73942999999999    R0
Au    8.760000    1.685863    53.123599999999996    R0
Au    13.140000    9.272245    53.123599999999996    R0
Au    2.920000    1.685863    53.123599999999996    R0
Au    11.680000    1.685863    53.123599999999996    R0
Au    7.300000    9.272245    53.123599999999996    R0
Au    16.059999    9.272245    53.123599999999996    R0
Au    5.840000    1.685863    53.123599999999996    R0
Au    14.600000    1.685863    53.123599999999996    R0
Au    10.220000    9.272245    53.123599999999996    R0
Au    18.980000    9.272245    53.123599999999996    R0
Au    10.220000    4.214657    53.123599999999996    R0
Au    14.600000    11.801040    53.123599999999996    R0
Au    4.380000    4.214657    53.123599999999996    R0
Au    13.140000    4.214657    53.123599999999996    R0
Au    8.760000    11.801040    53.123599999999996    R0
Au    17.520000    11.801040    53.123599999999996    R0
Au    7.300000    4.214657    53.123599999999996    R0
Au    16.059999    4.214657    53.123599999999996    R0
Au    11.680000    11.801040    53.123599999999996    R0
Au    20.440001    11.801040    53.123599999999996    R0
Au    11.680000    6.743451    53.123599999999996    R0
Au    5.840000    6.743451    53.123599999999996    R0
Au    14.600000    6.743451    53.123599999999996    R0
Au    8.760000    6.743451    53.123599999999996    R0
Au    17.520000    6.743451    53.123599999999996    R0
Au    0.000000    0.000000    55.507769999999994    R0
Au    8.760000    0.000000    55.507769999999994    R1
Au    4.380000    7.586382    55.507769999999994    R1
Au    13.140000    7.586382    55.507769999999994    R1
Au    2.920000    0.000000    55.507769999999994    R1
Au    11.680000    0.000000    55.507769999999994    R1
Au    7.300000    7.586382    55.507769999999994    R1
Au    16.059999    7.586382    55.507769999999994    R1
Au    5.840000    0.000000    55.507769999999994    R1
Au    10.220000    7.586382    55.507769999999994    R1
Au    1.460000    2.528794    55.507769999999994    R1
Au    10.220000    2.528794    55.507769999999994    R1
Au    5.840000    10.115176    55.507769999999994    R1
Au    14.600000    10.115176    55.507769999999994    R1
Au    4.380000    2.528794    55.507769999999994    R1
Au    13.140000    2.528794    55.507769999999994    R1
Au    8.760000    10.115176    55.507769999999994    R1
Au    17.520000    10.115176    55.507769999999994    R1
Au    7.300000    2.528794    55.507769999999994    R1
Au    11.680000    10.115176    55.507769999999994    R1
Au    2.920000    5.057588    55.507769999999994    R1
Au    11.680000    5.057588    55.507769999999994    R1
Au    5.840000    5.057588    55.507769999999994    R1
Au    14.600000    5.057588    55.507769999999994    R1
Au    8.760000    5.057588    55.507769999999994    R1
Au    1.460000    0.842931    57.89193999999999    R1
Au    10.220000    0.842931    57.89193999999999    R1
Au    5.840000    8.429314    57.89193999999999    R1
Au    14.600000    8.429314    57.89193999999999    R1
Au    4.380000    0.842931    57.89193999999999    R1
Au    13.140000    0.842931    57.89193999999999    R1
Au    8.760000    8.429314    57.89193999999999    R1
Au    17.520000    8.429314    57.89193999999999    R1
Au    7.300000    0.842931    57.89193999999999    R1
Au    11.680000    8.429314    57.89193999999999    R1
Au    2.920000    3.371726    57.89193999999999    R1
Au    11.680000    3.371726    57.89193999999999    R1
Au    7.300000    10.958108    57.89193999999999    R1
Au    16.059999    10.958108    57.89193999999999    R1
Au    5.840000    3.371726    57.89193999999999    R1
Au    14.600000    3.371726    57.89193999999999    R1
Au    10.220000    10.958108    57.89193999999999    R1
Au    18.980000    10.958108    57.89193999999999    R1
Au    8.760000    3.371726    57.89193999999999    R1
Au    13.140000    10.958108    57.89193999999999    R1
Au    4.380000    5.900520    57.89193999999999    R1
Au    13.140000    5.900520    57.89193999999999    R1
Au    7.300000    5.900520    57.89193999999999    R1
Au    16.059999    5.900520    57.89193999999999    R1
Au    10.220000    5.900520    57.89193999999999    R1
Au    8.760000    1.685863    60.276109999999996    R1
Au    13.140000    9.272245    60.276109999999996    R1
Au    2.920000    1.685863    60.276109999999996    R1
Au    11.680000    1.685863    60.276109999999996    R1
Au    7.300000    9.272245    60.276109999999996    R1
Au    16.059999    9.272245    60.276109999999996    R1
Au    5.840000    1.685863    60.276109999999996    R1
Au    14.600000    1.685863    60.276109999999996    R1
Au    10.220000    9.272245    60.276109999999996    R1
Au    18.980000    9.272245    60.276109999999996    R1
Au    10.220000    4.214657    60.276109999999996    R1
Au    14.600000    11.801040    60.276109999999996    R1
Au    4.380000    4.214657    60.276109999999996    R1
Au    13.140000    4.214657    60.276109999999996    R1
Au    8.760000    11.801040    60.276109999999996    R1
Au    17.520000    11.801040    60.276109999999996    R1
Au    7.300000    4.214657    60.276109999999996    R1
Au    16.059999    4.214657    60.276109999999996    R1
Au    11.680000    11.801040    60.276109999999996    R1
Au    20.440001    11.801040    60.276109999999996    R1
Au    11.680000    6.743451    60.276109999999996    R1
Au    5.840000    6.743451    60.276109999999996    R1
Au    14.600000    6.743451    60.276109999999996    R1
Au    8.760000    6.743451    60.276109999999996    R1
Au    17.520000    6.743451    60.276109999999996    R1
Au    0.000000    0.000000    62.660278999999996    R1
Au    8.760000    0.000000    62.660278999999996    R2
Au    4.380000    7.586382    62.660278999999996    R2
Au    13.140000    7.586382    62.660278999999996    R2
Au    2.920000    0.000000    62.660278999999996    R2
Au    11.680000    0.000000    62.660278999999996    R2
Au    7.300000    7.586382    62.660278999999996    R2
Au    16.059999    7.586382    62.660278999999996    R2
Au    5.840000    0.000000    62.660278999999996    R2
Au    10.220000    7.586382    62.660278999999996    R2
Au    1.460000    2.528794    62.660278999999996    R2
Au    10.220000    2.528794    62.660278999999996    R2
Au    5.840000    10.115176    62.660278999999996    R2
Au    14.600000    10.115176    62.660278999999996    R2
Au    4.380000    2.528794    62.660278999999996    R2
Au    13.140000    2.528794    62.660278999999996    R2
Au    8.760000    10.115176    62.660278999999996    R2
Au    17.520000    10.115176    62.660278999999996    R2
Au    7.300000    2.528794    62.660278999999996    R2
Au    11.680000    10.115176    62.660278999999996    R2
Au    2.920000    5.057588    62.660278999999996    R2
Au    11.680000    5.057588    62.660278999999996    R2
Au    5.840000    5.057588    62.660278999999996    R2
Au    14.600000    5.057588    62.660278999999996    R2
Au    8.760000    5.057588    62.660278999999996    R2
Au    1.460000    0.842931    65.04445    R2
Au    10.220000    0.842931    65.04445    R2
Au    5.840000    8.429314    65.04445    R2
Au    14.600000    8.429314    65.04445    R2
Au    4.380000    0.842931    65.04445    R2
Au    13.140000    0.842931    65.04445    R2
Au    8.760000    8.429314    65.04445    R2
Au    17.520000    8.429314    65.04445    R2
Au    7.300000    0.842931    65.04445    R2
Au    11.680000    8.429314    65.04445    R2
Au    2.920000    3.371726    65.04445    R2
Au    11.680000    3.371726    65.04445    R2
Au    7.300000    10.958108    65.04445    R2
Au    16.059999    10.958108    65.04445    R2
Au    5.840000    3.371726    65.04445    R2
Au    14.600000    3.371726    65.04445    R2
Au    10.220000    10.958108    65.04445    R2
Au    18.980000    10.958108    65.04445    R2
Au    8.760000    3.371726    65.04445    R2
Au    13.140000    10.958108    65.04445    R2
Au    4.380000    5.900520    65.04445    R2
Au    13.140000    5.900520    65.04445    R2
Au    7.300000    5.900520    65.04445    R2
Au    16.059999    5.900520    65.04445    R2
Au    10.220000    5.900520    65.04445    R2
Au    8.760000    1.685863    67.42862    R2
Au    13.140000    9.272245    67.42862    R2
Au    2.920000    1.685863    67.42862    R2
Au    11.680000    1.685863    67.42862    R2
Au    7.300000    9.272245    67.42862    R2
Au    16.059999    9.272245    67.42862    R2
Au    5.840000    1.685863    67.42862    R2
Au    14.600000    1.685863    67.42862    R2
Au    10.220000    9.272245    67.42862    R2
Au    18.980000    9.272245    67.42862    R2
Au    10.220000    4.214657    67.42862    R2
Au    14.600000    11.801040    67.42862    R2
Au    4.380000    4.214657    67.42862    R2
Au    13.140000    4.214657    67.42862    R2
Au    8.760000    11.801040    67.42862    R2
Au    17.520000    11.801040    67.42862    R2
Au    7.300000    4.214657    67.42862    R2
Au    16.059999    4.214657    67.42862    R2
Au    11.680000    11.801040    67.42862    R2
Au    20.440001    11.801040    67.42862    R2
Au    11.680000    6.743451    67.42862    R2
Au    5.840000    6.743451    67.42862    R2
Au    14.600000    6.743451    67.42862    R2
Au    8.760000    6.743451    67.42862    R2
Au    17.520000    6.743451    67.42862    R2
Au    0.000000    0.000000    69.812789    R2
Au    8.760000    0.000000    69.812789    R3
Au    4.380000    7.586382    69.812789    R3
Au    13.140000    7.586382    69.812789    R3
Au    2.920000    0.000000    69.812789    R3
Au    11.680000    0.000000    69.812789    R3
Au    7.300000    7.586382    69.812789    R3
Au    16.059999    7.586382    69.812789    R3
Au    5.840000    0.000000    69.812789    R3
Au    10.220000    7.586382    69.812789    R3
Au    1.460000    2.528794    69.812789    R3
Au    10.220000    2.528794    69.812789    R3
Au    5.840000    10.115176    69.812789    R3
Au    14.600000    10.115176    69.812789    R3
Au    4.380000    2.528794    69.812789    R3
Au    13.140000    2.528794    69.812789    R3
Au    8.760000    10.115176    69.812789    R3
Au    17.520000    10.115176    69.812789    R3
Au    7.300000    2.528794    69.812789    R3
Au    11.680000    10.115176    69.812789    R3
Au    2.920000    5.057588    69.812789    R3
Au    11.680000    5.057588    69.812789    R3
Au    5.840000    5.057588    69.812789    R3
Au    14.600000    5.057588    69.812789    R3
Au    8.760000    5.057588    69.812789    R3
Au    1.460000    0.842931    72.19695999999999    R3
Au    10.220000    0.842931    72.19695999999999    R3
Au    5.840000    8.429314    72.19695999999999    R3
Au    14.600000    8.429314    72.19695999999999    R3
Au    4.380000    0.842931    72.19695999999999    R3
Au    13.140000    0.842931    72.19695999999999    R3
Au    8.760000    8.429314    72.19695999999999    R3
Au    17.520000    8.429314    72.19695999999999    R3
Au    7.300000    0.842931    72.19695999999999    R3
Au    11.680000    8.429314    72.19695999999999    R3
Au    2.920000    3.371726    72.19695999999999    R3
Au    11.680000    3.371726    72.19695999999999    R3
Au    7.300000    10.958108    72.19695999999999    R3
Au    16.059999    10.958108    72.19695999999999    R3
Au    5.840000    3.371726    72.19695999999999    R3
Au    14.600000    3.371726    72.19695999999999    R3
Au    10.220000    10.958108    72.19695999999999    R3
Au    18.980000    10.958108    72.19695999999999    R3
Au    8.760000    3.371726    72.19695999999999    R3
Au    13.140000    10.958108    72.19695999999999    R3
Au    4.380000    5.900520    72.19695999999999    R3
Au    13.140000    5.900520    72.19695999999999    R3
Au    7.300000    5.900520    72.19695999999999    R3
Au    16.059999    5.900520    72.19695999999999    R3
Au    10.220000    5.900520    72.19695999999999    R3
Au    8.760000    1.685863    74.58113    R3
Au    13.140000    9.272245    74.58113    R3
Au    2.920000    1.685863    74.58113    R3
Au    11.680000    1.685863    74.58113    R3
Au    7.300000    9.272245    74.58113    R3
Au    16.059999    9.272245    74.58113    R3
Au    5.840000    1.685863    74.58113    R3
Au    14.600000    1.685863    74.58113    R3
Au    10.220000    9.272245    74.58113    R3
Au    18.980000    9.272245    74.58113    R3
Au    10.220000    4.214657    74.58113    R3
Au    14.600000    11.801040    74.58113    R3
Au    4.380000    4.214657    74.58113    R3
Au    13.140000    4.214657    74.58113    R3
Au    8.760000    11.801040    74.58113    R3
Au    17.520000    11.801040    74.58113    R3
Au    7.300000    4.214657    74.58113    R3
Au    16.059999    4.214657    74.58113    R3
Au    11.680000    11.801040    74.58113    R3
Au    20.440001    11.801040    74.58113    R3
Au    11.680000    6.743451    74.58113    R3
Au    5.840000    6.743451    74.58113    R3
Au    14.600000    6.743451    74.58113    R3
Au    8.760000    6.743451    74.58113    R3
Au    17.520000    6.743451    74.58113    R3
