      81
 i =       99, E =      -418.1353676981
  H         4.6563847832        0.9521179305       31.0355438205
  C         4.9656174690        1.9319025610       30.6664878122
  C         4.0212498438        2.9739576410       30.6071446624
  C         4.4335229457        4.2330338268       30.1223958669
  H         3.7066605754        5.0451207186       30.0687330604
  C         5.7467651853        4.4525661557       29.7426733425
  H         6.0632974785        5.4279963765       29.3734818339
  C         6.7256941297        3.4175155117       29.8414124523
  C         6.2858368659        2.1402196545       30.2949254693
  H         7.0154439192        1.3333674094       30.3619126736
  C         2.6142727815        2.7662684451       31.1094367694
  N         2.2939676692        3.7110472794       32.2017153368
  H         1.8875112651        2.9582694652       30.3025566094
  H         2.4839134688        1.7121957975       31.4133322366
  C         0.9624376201        3.5985432739       32.7633896653
  C         3.1962936409        3.7067405404       33.3327195796
  C        -0.7935790370        1.4810184201       39.6965693025
  C        -0.1630927372        0.3479059250       40.3464545935
  C        -0.7501449268       -0.8632436474       39.8077741242
  C        -1.7485515284       -0.4812319175       38.8225240117
  C        -1.7696837339        0.9683112674       38.7495673957
  C        -1.9457150205        1.5977269367       37.5139462009
  C        -2.1261099819        0.8163467915       36.3054120039
  C        -2.1117669136       -0.5800691775       36.3774553974
  C        -1.9095082075       -1.2356048210       37.6579450472
  C        -1.0779671974       -2.4021217428       37.4313189440
  C        -0.1178144771       -2.7715612296       38.3753430683
  C         0.0504071015       -1.9905144043       39.5884369642
  C         1.4644618127       -1.9512715467       39.9030865283
  C         2.0334212657       -0.7842061289       40.4267810934
  C         1.2075297604        0.3871522974       40.6499972627
  C         1.9899371567        1.5616635846       40.3154945165
  C         3.3031433225        1.1140063013       39.8789273143
  C         3.3332243663       -0.3369902690       39.9527904297
  C         4.0127637517       -1.0691627699       38.9753243777
  C         3.4203079226       -2.2792358362       38.4313542333
  C         2.1727250426       -2.7113347375       38.8862167362
  C         1.1931485104       -3.2174277600       37.9409794726
  C         1.4963232007       -3.2690359815       36.5768376990
  C         0.4995579749       -2.8824111941       35.5959887666
  C        -0.7687627393       -2.4627868952       36.0156104215
  C        -1.4087374839       -1.3390218115       35.3628637651
  C        -0.7529012623       -0.6732461135       34.3201518332
  C        -0.7678497274        0.7769327235       34.2484183719
  C        -1.4545803472        1.5014188935       35.2179846168
  C        -0.8367874185        2.7118189004       35.7640612173
  C         0.3897890006        3.1523037119       35.2909571168
  C         1.0550767477        2.6062872773       34.0230254558
  C         0.5221873438        1.2323598584       33.7517530858
  C         1.3308961862        0.1030257948       33.5673170459
  C         0.5600627273       -1.1005653358       33.8983064024
  C         1.1710002949       -2.1852328918       34.5200151424
  C         2.5987227336       -2.1447906441       34.8362162786
  C         2.7916734684       -2.8163093736       36.1037604783
  C         3.7383049745       -2.3343546186       37.0155242633
  C         4.5248290965       -1.1674906579       36.6814245126
  C         4.6946581382       -0.3857547817       37.8904099524
  C         4.6610843540        1.0100050697       37.8154219578
  C         3.9501536518        1.7684915780       38.8271257232
  C         3.3032387681        2.8872442761       38.1685165633
  C         3.6102807180        2.8296039127       36.7590263248
  C         4.4673747853        1.6671461887       36.5372393749
  C         4.2985645287        0.9215461880       35.3749788511
  C         4.3360612411       -0.5264581643       35.4510485200
  C         3.3523569605       -1.0196037064       34.5181010438
  C         2.7286248343        0.1435037604       33.8764916972
  C         3.3196643567        1.3138324516       34.3714967509
  C         2.6407715027        2.6506639750       34.3886110197
  C         2.6718001260        3.2014882997       35.8114018382
  C         1.3682018855        3.6124679474       36.2348039323
  C         1.0637465184        3.6991520903       37.6135909423
  C         2.0510480437        3.3326133440       38.5992884095
  C         1.3790332657        2.6548126088       39.6908670619
  C        -0.0392917475        2.6137057573       39.3758626807
  C        -0.2240294701        3.2642276897       38.0929386266
  C        -1.1489810893        2.7595616812       37.1752965946
  H         4.2289992101        3.4954800425       33.0362652454
  H         3.1713704155        4.6938523789       33.8166491345
  S         8.3685875213        3.7112122960       29.4505723613
  H         0.6370565218        4.5794849119       33.1428897873
  H         0.2333421039        3.2579376406       32.0173964253