     117
 i =      276, E =     -1614.5360839022
 Au         0.0000000000        0.0000000000        0.0000000000
 Au         8.7600000000        0.0000000000        0.0000000000
 Au         2.9200000000        0.0000000000        0.0000000000
 Au         5.8400000000        0.0000000000        0.0000000000
 Au         1.4600000000        2.5287940000        0.0000000000
 Au        10.2200000000        2.5287940000        0.0000000000
 Au         4.3800000000        2.5287940000        0.0000000000
 Au         7.3000000000        2.5287940000        0.0000000000
 Au         2.9200000000        5.0575880000        0.0000000000
 Au        11.6800000000        5.0575880000        0.0000000000
 Au         5.8400000000        5.0575880000        0.0000000000
 Au         8.7600000000        5.0575880000        0.0000000000
 Au         1.4600000000        0.8429310000        2.3841700000
 Au        10.2200000000        0.8429310000        2.3841700000
 Au         4.3800000000        0.8429310000        2.3841700000
 Au         7.3000000000        0.8429310000        2.3841700000
 Au         2.9200000000        3.3717260000        2.3841700000
 Au        11.6800000000        3.3717260000        2.3841700000
 Au         5.8400000000        3.3717260000        2.3841700000
 Au         8.7600000000        3.3717260000        2.3841700000
 Au         4.3800000000        5.9005200000        2.3841700000
 Au        13.1400000000        5.9005200000        2.3841700000
 Au         7.3000000000        5.9005200000        2.3841700000
 Au        10.2200000000        5.9005200000        2.3841700000
 Au         8.7600000000        1.6858630000        4.7683400000
 Au         2.9200000000        1.6858630000        4.7683400000
 Au        11.6800000000        1.6858630000        4.7683400000
 Au         5.8400000000        1.6858630000        4.7683400000
 Au        10.2200000000        4.2146570000        4.7683400000
 Au         4.3800000000        4.2146570000        4.7683400000
 Au        13.1400000000        4.2146570000        4.7683400000
 Au         7.3000000000        4.2146570000        4.7683400000
 Au        11.6800000000        6.7434510000        4.7683400000
 Au         5.8400000000        6.7434510000        4.7683400000
 Au        14.6000000000        6.7434510000        4.7683400000
 Au         8.7600000000        6.7434510000        4.7683400000
  H        11.1119814285        4.7208423770       11.1679224126
  C        10.5880630276        5.1897447699       10.3325844709
  C        10.3605143013        6.5723697157       10.3477607683
  C         9.6711665732        7.1483993807        9.2680455577
  H         9.4798947232        8.2225425149        9.2645232616
  C         9.2183105539        6.3646491508        8.2087745684
  H         8.6688705523        6.8278350943        7.3853514324
  C         9.4678612463        4.9836486279        8.1917436691
  C        10.1622341733        4.4008111201        9.2667094280
  H        10.3600955226        3.3288362670        9.2634199876
  C        10.8946446663        7.3993411492       11.4920054599
  N         9.9500018187        8.4175025565       11.9921165461
  H        11.7873754924        7.9514087579       11.1533586217
  H        11.2357687890        6.7181683315       12.2930988566
  C        10.4752266293        9.1957058419       13.0999655637
  C         8.6573366426        7.9360897120       12.4450513092
  C         8.3091624453        9.3077105964       20.2439174454
  C         7.9662800643        8.1228071592       20.9910838872
  C         9.2037925909        7.4357342135       21.3691753318
  C        10.3258848918        8.1934504135       20.8621645886
  C         9.7563345780        9.3256429051       20.1620970094
  C        10.3199182011        9.6758473677       18.9545916388
  C        11.4844961518        9.0207584969       18.4429900621
  C        12.1027152270        8.0016688236       19.1353312445
  C        11.4710046527        7.5440546115       20.3562515244
  C        11.5568723553        6.1011365963       20.3320497685
  C        10.4728520158        5.3644784192       20.8161592940
  C         9.2808557667        6.0392449550       21.3432824989
  C         8.1137719421        5.2942326738       20.9376268920
  C         6.9184911883        5.9543444144       20.5778365251
  C         6.8339144249        7.3943267792       20.5995655667
  C         6.0199595430        7.8322975782       19.4634469746
  C         5.5961718871        6.6627927586       18.7263060390
  C         6.1587135905        5.5206090564       19.4207801312
  C         6.6873603879        4.5055996754       18.6545744828
  C         7.9014192159        3.8344832474       19.0226302747
  C         8.5994537354        4.1708292078       20.1595056230
  C        10.0481931901        4.1957204387       20.0787530317
  C        10.7063582073        3.8102765825       18.8941010773
  C        11.8243380001        4.5713584225       18.3861314941
  C        12.2478341176        5.6988141931       19.1011874891
  C        12.5943476489        6.8842646884       18.3584775731
  C        12.5162799451        6.9073907021       16.9470515954
  C        11.9472751108        8.0411987921       16.2421235044
  C        11.4200444254        9.0484854755       17.0104925722
  C        10.1822287960        9.6932512801       16.6370692935
  C         9.5017367555        9.3754574474       15.4981456833
  C        10.0852323957        8.4383250993       14.4498618239
  C        11.2081161076        7.6174458992       15.0671963706
  C        11.2571097869        6.2197411798       15.0713803286
  C        12.0750484360        5.7535202639       16.2165469839
  C        11.7390236408        4.6049919708       16.9281821863
  C        10.5609801303        3.8575564231       16.5193633249
  C         9.9450089718        3.3808880929       17.7362019604
  C         8.5687380345        3.4371490084       17.8180086438
  C         7.7707989369        3.8612887027       16.7064862709
  C         6.6110419535        4.5242572400       17.2223656873
  C         6.0111544352        5.5612345952       16.5383921575
  C         5.5264149569        6.6817557116       17.3180861032
  C         5.8791110542        7.8681211109       16.5751723762
  C         6.5606560583        7.4724486532       15.3440914826
  C         6.6340586469        6.0190911772       15.3165308272
  C         7.7889654116        5.3867254192       14.8209480458
  C         8.3405911013        4.2375985816       15.5089278525
  C         9.7785360659        4.2773970451       15.4302649700
  C        10.0988954477        5.4827935086       14.6788422091
  C         8.9014690164        6.1351977805       14.2949922100
  C         8.7778194298        7.5944525581       13.9987254092
  C         7.6250909890        8.2040618346       14.8367484174
  C         8.0710089798        9.3332570893       15.5863107761
  C         7.3972064702        9.7489463478       16.7744215060
  C         6.2786624162        9.0053356318       17.2835766468
  C         6.3530060282        8.9864477787       18.7470713028
  C         7.5228813288        9.7320415235       19.1509629943
  C         8.1485870413       10.1837284918       17.9249668814
  C         9.5203655981       10.0896824466       17.8392418860
  H         8.3180748605        7.0755656683       11.8577437976
  H         7.9145480343        8.7415919823       12.3389487381
  S         8.9081901007        3.8551889733        6.9361520204
  H         9.9859096213       10.1818724039       13.1232516475
  H        11.5566618938        9.3516564379       13.0086370817
 Au         0.0000000000        0.0000000000        0.0000000000
 Au         8.7600000000        0.0000000000        0.0000000000
 Au         2.9200000000        0.0000000000        0.0000000000
 Au         5.8400000000        0.0000000000        0.0000000000
 Au         1.4600000000        2.5287940000        0.0000000000
 Au        10.2200000000        2.5287940000        0.0000000000
 Au         4.3800000000        2.5287940000        0.0000000000
 Au         7.3000000000        2.5287940000        0.0000000000
 Au         2.9200000000        5.0575880000        0.0000000000
 Au        11.6800000000        5.0575880000        0.0000000000
 Au         5.8400000000        5.0575880000        0.0000000000
 Au         8.7600000000        5.0575880000        0.0000000000
 Au         1.4600000000        0.8429310000        2.3841700000
 Au        10.2200000000        0.8429310000        2.3841700000
 Au         4.3800000000        0.8429310000        2.3841700000
 Au         7.3000000000        0.8429310000        2.3841700000
 Au         2.9200000000        3.3717260000        2.3841700000
 Au        11.6800000000        3.3717260000        2.3841700000
 Au         5.8400000000        3.3717260000        2.3841700000
 Au         8.7600000000        3.3717260000        2.3841700000
 Au         4.3800000000        5.9005200000        2.3841700000
 Au        13.1400000000        5.9005200000        2.3841700000
 Au         7.3000000000        5.9005200000        2.3841700000
 Au        10.2200000000        5.9005200000        2.3841700000
 Au         8.7600000000        1.6858630000        4.7683400000
 Au         2.9200000000        1.6858630000        4.7683400000
 Au        11.6800000000        1.6858630000        4.7683400000
 Au         5.8400000000        1.6858630000        4.7683400000
 Au        10.2200000000        4.2146570000        4.7683400000
 Au         4.3800000000        4.2146570000        4.7683400000
 Au        13.1400000000        4.2146570000        4.7683400000
 Au         7.3000000000        4.2146570000        4.7683400000
 Au        11.6800000000        6.7434510000        4.7683400000
 Au         5.8400000000        6.7434510000        4.7683400000
 Au        14.6000000000        6.7434510000        4.7683400000
 Au         8.7600000000        6.7434510000        4.7683400000