     201
 i =        2, E =     -2412.2316346155
Au    0.0000000000    0.0000000000    0.0000000000    L0
Au    8.7600000000    0.0000000000    0.0000000000    L0
Au    4.3800000000    7.5863820000    0.0000000000    L0
Au    13.1400000000    7.5863820000    0.0000000000    L0
Au    2.9200000000    0.0000000000    0.0000000000    L0
Au    11.6800000000    0.0000000000    0.0000000000    L0
Au    7.3000000000    7.5863820000    0.0000000000    L0
Au    16.0599990000    7.5863820000    0.0000000000    L0
Au    5.8400000000    0.0000000000    0.0000000000    L0
Au    10.2200000000    7.5863820000    0.0000000000    L0
Au    1.4600000000    2.5287940000    0.0000000000    L0
Au    10.2200000000    2.5287940000    0.0000000000    L0
Au    4.3800000000    2.5287940000    0.0000000000    L0
Au    13.1400000000    2.5287940000    0.0000000000    L0
Au    7.3000000000    2.5287940000    0.0000000000    L0
Au    2.9200000000    5.0575880000    0.0000000000    L0
Au    11.6800000000    5.0575880000    0.0000000000    L0
Au    5.8400000000    5.0575880000    0.0000000000    L0
Au    14.6000000000    5.0575880000    0.0000000000    L0
Au    8.7600000000    5.0575880000    0.0000000000    L0
Au    1.4600000000    0.8429310000    2.3841700000    L0
Au    10.2200000000    0.8429310000    2.3841700000    L0
Au    5.8400000000    8.4293140000    2.3841700000    L0
Au    14.6000000000    8.4293140000    2.3841700000    L0
Au    4.3800000000    0.8429310000    2.3841700000    L0
Au    13.1400000000    0.8429310000    2.3841700000    L0
Au    8.7600000000    8.4293140000    2.3841700000    L0
Au    17.5200000000    8.4293140000    2.3841700000    L0
Au    7.3000000000    0.8429310000    2.3841700000    L0
Au    11.6800000000    8.4293140000    2.3841700000    L0
Au    2.9200000000    3.3717260000    2.3841700000    L0
Au    11.6800000000    3.3717260000    2.3841700000    L0
Au    5.8400000000    3.3717260000    2.3841700000    L0
Au    14.6000000000    3.3717260000    2.3841700000    L0
Au    8.7600000000    3.3717260000    2.3841700000    L0
Au    4.3800000000    5.9005200000    2.3841700000    L0
Au    13.1400000000    5.9005200000    2.3841700000    L0
Au    7.3000000000    5.9005200000    2.3841700000    L0
Au    16.0599990000    5.9005200000    2.3841700000    L0
Au    10.2200000000    5.9005200000    2.3841700000    L0
Au    8.7600000000    1.6858630000    4.7683400000    L0
Au    13.1400000000    9.2722450000    4.7683400000    L0
Au    2.9200000000    1.6858630000    4.7683400000    L0
Au    11.6800000000    1.6858630000    4.7683400000    L0
Au    7.3000000000    9.2722450000    4.7683400000    L0
Au    16.0599990000    9.2722450000    4.7683400000    L0
Au    5.8400000000    1.6858630000    4.7683400000    L0
Au    14.6000000000    1.6858630000    4.7683400000    L0
Au    10.2200000000    9.2722450000    4.7683400000    L0
Au    18.9800000000    9.2722450000    4.7683400000    L0
Au    10.2200000000    4.2146570000    4.7683400000    L0
Au    4.3800000000    4.2146570000    4.7683400000    L0
Au    13.1400000000    4.2146570000    4.7683400000    L0
Au    7.3000000000    4.2146570000    4.7683400000    L0
Au    16.0599990000    4.2146570000    4.7683400000    L0
Au    11.6800000000    6.7434510000    4.7683400000    L0
Au    5.8400000000    6.7434510000    4.7683400000    L0
Au    14.6000000000    6.7434510000    4.7683400000    L0
Au    8.7600000000    6.7434510000    4.7683400000    L0
Au    17.5200000000    6.7434510000    4.7683400000    L0
H    10.4471130352    3.7011792725    11.5242788217    S
C    10.2630209810    4.3345313840    10.6545079560    S
C    10.4706478087    5.7165441772    10.7488717975    S
C    10.2221686568    6.5120412165    9.6169027281    S
H    10.3735860109    7.5913111501    9.6750294734    S
C    9.7820063440    5.9447945358    8.4234618770    S
H    9.5967142076    6.5742906807    7.5513899138    S
C    9.5790870637    4.5569679585    8.3403359222    S
C    9.8253023626    3.7525373180    9.4671153589    S
H    9.6695846033    2.6755025159    9.4073240861    S
C    10.9636475283    6.3173746245    12.0412342434    S
N    10.0098434246    7.2776431315    12.6416052737    S
H    11.8904914042    6.8834637523    11.8556274397    S
H    11.2247965385    5.5025840074    12.7402900044    S
C    10.4599876338    7.8325205357    13.9029224865    S
C    8.6651040827    6.7943241449    12.8916777156    S
C    7.6393783987    6.8239997646    20.6874638969    S
C    7.1699596701    5.5342788757    21.1563052123    S
C    8.3257738080    4.7354681312    21.5133197799    S
C    9.5185255250    5.5311369462    21.2674648818    S
C    9.0925249933    6.8208692705    20.7504612391    S
C    9.8375862626    7.4503087951    19.7489522277    S
C    11.0413366414    6.8273834746    19.2299683724    S
C    11.4549377212    5.5866886121    19.7330127989    S
C    10.6730919465    4.9260227455    20.7652643909    S
C    10.6834945807    3.4977459476    20.4881098289    S
C    9.5372629373    2.7325556916    20.7218754945    S
C    8.3356810816    3.3614958193    21.2460050807    S
C    7.1893825329    2.7358096234    20.6167746745    S
C    6.0703935434    3.5043735962    20.2752397769    S
C    6.0594000723    4.9282523976    20.5469850072    S
C    5.3837919187    5.5926956658    19.4489955021    S
C    4.9787279712    4.5752359579    18.4918389259    S
C    5.3975803579    3.2814550275    19.0048534351    S
C    5.8652717771    2.3009161165    18.1263861196    S
C    7.0279742425    1.5016035464    18.4818797219    S
C    7.6773324588    1.7171839105    19.7010536916    S
C    9.1291258534    1.7181344597    19.7647888210    S
C    9.8792511514    1.5130119368    18.6027001876    S
C    11.0673734998    2.3126514467    18.3561171990    S
C    11.4671721669    3.2839107379    19.2842454506    S
C    11.9433382348    4.5724999924    18.8192753651    S
C    11.9982033994    4.8417365083    17.4458793610    S
C    11.5691442780    6.1276826137    16.9256162226    S
C    11.1116743124    7.1018848395    17.8067264840    S
C    9.9287178557    7.8874949295    17.4396423708    S
C    9.3005851334    7.6861202727    16.2203611979    S
C    9.9166673016    6.8859795814    15.0716711911    S
C    10.9187194491    5.9200790735    15.6366744625    S
C    10.8937090211    4.5401763244    15.3966836648    S
C    11.5744819989    3.8431422355    16.4942146721    S
C    11.1228754596    2.6046880677    16.9388738169    S
C    9.9656869885    1.9713603993    16.3032834755    S
C    9.2048834588    1.2958064311    17.3341735870    S
C    7.8042347805    1.2822149303    17.2740989893    S
C    7.1248670033    1.9406300353    16.1744837421    S
C    5.9275602846    2.5688806009    16.6988176944    S
C    5.5296121504    3.8186271545    16.2042971568    S
C    5.0504111544    4.8371730200    17.1204637106    S
C    5.5371456952    6.1247862190    16.6550968353    S
C    6.3147458601    5.9145745538    15.4543067057    S
C    6.3022403918    4.4763599675    15.1670983275    S
C    7.4585587521    3.8826042499    14.6719848141    S
C    7.8711128321    2.5868873984    15.1805044434    S
C    9.3128554547    2.6058043349    15.2518800548    S
C    9.7622957197    3.9195236255    14.7745955886    S
C    8.6479590480    4.6784433913    14.3999218769    S
C    8.6300579017    6.1769756570    14.3650270757    S
C    7.4465389198    6.6748692480    15.1983494991    S
C    7.8680378269    7.6492430868    16.1637199041    S
C    7.0993430534    7.8881908657    17.3269218489    S
C    5.9101200772    7.1095297477    17.5762267793    S
C    5.8347434395    6.8381824027    18.9995962660    S
C    6.9850382591    7.4659334768    19.6308003110    S
C    7.7577187563    8.1183718685    18.5906160135    S
C    9.1556668723    8.0994093463    18.6425757745    S
H    8.3460766538    6.0722256460    12.1320511082    S
H    7.9665216320    7.6447894746    12.8746875964    S
S    8.9615710314    3.7033538011    6.9109142692    S
H    10.0083118137    8.8255388051    14.0512912523    S
H    11.5507588913    7.9408860050    13.9329615167    S
Au   7.30000   4.21466  24.51332 R0
Au    0.0000000000    0.0000000000    26.89749    R0
Au    8.7600000000    0.0000000000    26.89749    R0
Au    4.3800000000    7.5863820000    26.89749    R0
Au    13.1400000000    7.5863820000    26.89749    R0
Au    2.9200000000    0.0000000000    26.89749    R0
Au    11.6800000000    0.0000000000    26.89749    R0
Au    7.3000000000    7.5863820000    26.89749    R0
Au    16.0599990000    7.5863820000    26.89749    R0
Au    5.8400000000    0.0000000000    26.89749    R0
Au    10.2200000000    7.5863820000    26.89749    R0
Au    1.4600000000    2.5287940000    26.89749    R0
Au    10.2200000000    2.5287940000    26.89749    R0
Au    4.3800000000    2.5287940000    26.89749    R0
Au    13.1400000000    2.5287940000    26.89749    R0
Au    7.3000000000    2.5287940000    26.89749    R0
Au    2.9200000000    5.0575880000    26.89749    R0
Au    11.6800000000    5.0575880000    26.89749    R0
Au    5.8400000000    5.0575880000    26.89749    R0
Au    14.6000000000    5.0575880000    26.89749    R0
Au    8.7600000000    5.0575880000    26.89749    R0
Au    1.4600000000    0.8429310000    29.281660000000002    R0
Au    10.2200000000    0.8429310000    29.281660000000002    R0
Au    5.8400000000    8.4293140000    29.281660000000002    R0
Au    14.6000000000    8.4293140000    29.281660000000002    R0
Au    4.3800000000    0.8429310000    29.281660000000002    R0
Au    13.1400000000    0.8429310000    29.281660000000002    R0
Au    8.7600000000    8.4293140000    29.281660000000002    R0
Au    17.5200000000    8.4293140000    29.281660000000002    R0
Au    7.3000000000    0.8429310000    29.281660000000002    R0
Au    11.6800000000    8.4293140000    29.281660000000002    R0
Au    2.9200000000    3.3717260000    29.281660000000002    R0
Au    11.6800000000    3.3717260000    29.281660000000002    R0
Au    5.8400000000    3.3717260000    29.281660000000002    R0
Au    14.6000000000    3.3717260000    29.281660000000002    R0
Au    8.7600000000    3.3717260000    29.281660000000002    R0
Au    4.3800000000    5.9005200000    29.281660000000002    R0
Au    13.1400000000    5.9005200000    29.281660000000002    R0
Au    7.3000000000    5.9005200000    29.281660000000002    R0
Au    16.0599990000    5.9005200000    29.281660000000002    R0
Au    10.2200000000    5.9005200000    29.281660000000002    R0
Au    8.7600000000    1.6858630000    31.66583    R0
Au    13.1400000000    9.2722450000    31.66583    R0
Au    2.9200000000    1.6858630000    31.66583    R0
Au    11.6800000000    1.6858630000    31.66583    R0
Au    7.3000000000    9.2722450000    31.66583    R0
Au    16.0599990000    9.2722450000    31.66583    R0
Au    5.8400000000    1.6858630000    31.66583    R0
Au    14.6000000000    1.6858630000    31.66583    R0
Au    10.2200000000    9.2722450000    31.66583    R0
Au    18.9800000000    9.2722450000    31.66583    R0
Au    10.2200000000    4.2146570000    31.66583    R0
Au    4.3800000000    4.2146570000    31.66583    R0
Au    13.1400000000    4.2146570000    31.66583    R0
Au    7.3000000000    4.2146570000    31.66583    R0
Au    16.0599990000    4.2146570000    31.66583    R0
Au    11.6800000000    6.7434510000    31.66583    R0
Au    5.8400000000    6.7434510000    31.66583    R0
Au    14.6000000000    6.7434510000    31.66583    R0
Au    8.7600000000    6.7434510000    31.66583    R0
Au    17.5200000000    6.7434510000    31.66583    R0
