     133
 i =      181, E =     -3318.3227417382
 Au         0.0000000000        0.0000000000        0.0000000000
 Au         8.7600000000        0.0000000000        0.0000000000
 Au         4.3800000000        7.5863820000        0.0000000000
 Au        13.1400000000        7.5863820000        0.0000000000
 Au         2.9200000000        0.0000000000        0.0000000000
 Au         7.3000000000        7.5863820000        0.0000000000
 Au         5.8400000000        0.0000000000        0.0000000000
 Au        10.2200000000        7.5863820000        0.0000000000
 Au         1.4600000000        2.5287940000        0.0000000000
 Au        10.2200000000        2.5287940000        0.0000000000
 Au         4.3800000000        2.5287940000        0.0000000000
 Au         7.3000000000        2.5287940000        0.0000000000
 Au         2.9200000000        5.0575880000        0.0000000000
 Au        11.6800000000        5.0575880000        0.0000000000
 Au         5.8400000000        5.0575880000        0.0000000000
 Au         8.7600000000        5.0575880000        0.0000000000
 Au         1.4600000000        0.8429310000        2.3841700000
 Au        10.2200000000        0.8429310000        2.3841700000
 Au         5.8400000000        8.4293140000        2.3841700000
 Au        14.6000000000        8.4293140000        2.3841700000
 Au         4.3800000000        0.8429310000        2.3841700000
 Au         8.7600000000        8.4293140000        2.3841700000
 Au         7.3000000000        0.8429310000        2.3841700000
 Au        11.6800000000        8.4293140000        2.3841700000
 Au         2.9200000000        3.3717260000        2.3841700000
 Au        11.6800000000        3.3717260000        2.3841700000
 Au         5.8400000000        3.3717260000        2.3841700000
 Au         8.7600000000        3.3717260000        2.3841700000
 Au         4.3800000000        5.9005200000        2.3841700000
 Au        13.1400000000        5.9005200000        2.3841700000
 Au         7.3000000000        5.9005200000        2.3841700000
 Au        10.2200000000        5.9005200000        2.3841700000
 Au         8.7600000000        1.6858630000        4.7683400000
 Au        13.1400000000        9.2722450000        4.7683400000
 Au         2.9200000000        1.6858630000        4.7683400000
 Au        11.6800000000        1.6858630000        4.7683400000
 Au         7.3000000000        9.2722450000        4.7683400000
 Au        16.0599990000        9.2722450000        4.7683400000
 Au         5.8400000000        1.6858630000        4.7683400000
 Au        10.2200000000        9.2722450000        4.7683400000
 Au        10.2200000000        4.2146570000        4.7683400000
 Au         4.3800000000        4.2146570000        4.7683400000
 Au        13.1400000000        4.2146570000        4.7683400000
 Au         7.3000000000        4.2146570000        4.7683400000
 Au        11.6800000000        6.7434510000        4.7683400000
 Au         5.8400000000        6.7434510000        4.7683400000
 Au        14.6000000000        6.7434510000        4.7683400000
 Au         8.7600000000        6.7434510000        4.7683400000
  C        10.0305021233        4.1718330566       19.8305359383
  C        11.1902309799        3.5721387634       19.3062634810
  C        11.1184467170        2.8255771634       18.1320880522
  C         9.9024442858        2.6439494344       17.4515572800
  C         8.7978156994        3.9599447665       19.1863300590
  C         8.7449917750        3.2093497960       18.0133596953
  C        10.0946366931        3.4373033338        9.8769295930
  H        12.0300502402        2.3768082353       17.7313110610
  S        10.1527268976        5.3409209354       21.1553491621
  H         7.8912310597        4.3995013688       19.6025987020
  H         7.7815425299        3.0624632537       17.5200452656
  H        12.1443499330        3.7115138789       19.8148032896
  C         8.9112059938        3.9749897075        9.3442774993
  C         8.9380726148        4.9716310428        8.3709980347
  C        10.1707062027        5.4634237938        7.9055410336
  C        11.3643021194        4.9013831585        8.3920398733
  C        11.3164393525        3.9046544700        9.3655624819
  H         8.0091243413        5.3852979118        7.9779683305
  H         7.9464123630        3.6085409145        9.7015053688
  H        12.3226369342        5.2599700365        8.0157082851
  H        12.2520687420        3.4829727660        9.7392549439
  S        10.2155150484        6.9291984595        6.9047938873
  C         9.8506437347        1.9154296608       16.1303354566
  C        10.0509198023        2.4403129817       11.0088744113
  C        10.0436612089        3.1316072594       12.3888210546
  C         9.9750957760        2.8714860270       14.9252184864
  H        10.6615465031        1.1710252209       16.0859206962
  H         8.9033177578        1.3584795512       16.0492040145
  H         9.1510028541        1.8119391601       10.9147694327
  H        10.9184478438        1.7644210170       10.9455328558
  C         9.9513693951        2.1579878168       13.5687029210
  H        10.9081686496        3.4509427526       15.0218732195
  H         9.1563178768        3.6086867676       14.9681684159
  H        10.7836940874        1.4350170237       13.5179684348
  H         9.0257914711        1.5630309166       13.4813401753
  H        10.9544055486        3.7459037385       12.4849151055
  H         9.1978106831        3.8378302838       12.4288962273
 Au         8.7600020000        1.6858630000       23.3945322366
 Au        13.1400000000        9.2722460000       23.3945322366
 Au         2.9200000000        1.6858630000       23.3945322366
 Au        11.6800000000        1.6858630000       23.3945322366
 Au         7.3000000000        9.2722460000       23.3945322366
 Au        16.0599990000        9.2722460000       23.3945322366
 Au         5.8400010000        1.6858630000       23.3945322366
 Au        10.2200000000        9.2722460000       23.3945322366
 Au        10.2200010000        4.2146570000       23.3945322366
 Au         4.3800000000        4.2146570000       23.3945322366
 Au        13.1400000000        4.2146570000       23.3945322366
 Au         7.3000000000        4.2146570000       23.3945322366
 Au        11.6800000000        6.7434510000       23.3945322366
 Au         5.8400000000        6.7434510000       23.3945322366
 Au        14.6000000000        6.7434510000       23.3945322366
 Au         8.7600000000        6.7434510000       23.3945322366
 Au         1.4600000000        0.8429310000       25.7787022366
 Au        10.2200000000        0.8429310000       25.7787022366
 Au         5.8400010000        8.4293140000       25.7787022366
 Au        14.6000000000        8.4293140000       25.7787022366
 Au         4.3800000000        0.8429310000       25.7787022366
 Au         8.7600000000        8.4293140000       25.7787022366
 Au         7.3000010000        0.8429310000       25.7787022366
 Au        11.6800000000        8.4293140000       25.7787022366
 Au         2.9200000000        3.3717260000       25.7787022366
 Au        11.6800010000        3.3717260000       25.7787022366
 Au         5.8400000000        3.3717260000       25.7787022366
 Au         8.7600000000        3.3717260000       25.7787022366
 Au         4.3800000000        5.9005200000       25.7787022366
 Au        13.1400000000        5.9005200000       25.7787022366
 Au         7.3000000000        5.9005200000       25.7787022366
 Au        10.2200000000        5.9005200000       25.7787022366
 Au         0.0000000000        0.0000000000       28.1628722366
 Au         8.7600000000        0.0000000000       28.1628722366
 Au         4.3800000000        7.5863820000       28.1628722366
 Au        13.1399990000        7.5863820000       28.1628722366
 Au         2.9200000000        0.0000000000       28.1628722366
 Au         7.3000000000        7.5863820000       28.1628722366
 Au         5.8400000000        0.0000000000       28.1628722366
 Au        10.2200000000        7.5863820000       28.1628722366
 Au         1.4600000000        2.5287940000       28.1628722366
 Au        10.2200000000        2.5287940000       28.1628722366
 Au         4.3800000000        2.5287940000       28.1628722366
 Au         7.3000000000        2.5287940000       28.1628722366
 Au         2.9200000000        5.0575880000       28.1628722366
 Au        11.6800000000        5.0575880000       28.1628722366
 Au         5.8400000000        5.0575880000       28.1628722366
 Au         8.7600000000        5.0575880000       28.1628722366
