 420
 i =       82, E =     -3365.3998523447
Au     0.000000     0.000000     0.000000     L3
Au     8.760000     0.000000     0.000000     L3
Au     4.380000     7.586382     0.000000     L3
Au     13.140000     7.586382     0.000000     L3
Au     2.920000     0.000000     0.000000     L3
Au     11.680000     0.000000     0.000000     L3
Au     7.300000     7.586382     0.000000     L3
Au     16.059999     7.586382     0.000000     L3
Au     5.840000     0.000000     0.000000     L3
Au     10.220000     7.586382     0.000000     L3
Au     1.460000     2.528794     0.000000     L3
Au     10.220000     2.528794     0.000000     L3
Au     5.840000     10.115176     0.000000     L3
Au     14.600000     10.115176     0.000000     L3
Au     4.380000     2.528794     0.000000     L3
Au     13.140000     2.528794     0.000000     L3
Au     8.760000     10.115176     0.000000     L3
Au     17.520000     10.115176     0.000000     L3
Au     7.300000     2.528794     0.000000     L3
Au     11.680000     10.115176     0.000000     L3
Au     2.920000     5.057588     0.000000     L3
Au     11.680000     5.057588     0.000000     L3
Au     5.840000     5.057588     0.000000     L3
Au     14.600000     5.057588     0.000000     L3
Au     8.760000     5.057588     0.000000     L3
Au     1.460000     0.842931     2.384170     L3
Au     10.220000     0.842931     2.384170     L3
Au     5.840000     8.429314     2.384170     L3
Au     14.600000     8.429314     2.384170     L3
Au     4.380000     0.842931     2.384170     L3
Au     13.140000     0.842931     2.384170     L3
Au     8.760000     8.429314     2.384170     L3
Au     17.520000     8.429314     2.384170     L3
Au     7.300000     0.842931     2.384170     L3
Au     11.680000     8.429314     2.384170     L3
Au     2.920000     3.371726     2.384170     L3
Au     11.680000     3.371726     2.384170     L3
Au     7.300000     10.958108     2.384170     L3
Au     16.059999     10.958108     2.384170     L3
Au     5.840000     3.371726     2.384170     L3
Au     14.600000     3.371726     2.384170     L3
Au     10.220000     10.958108     2.384170     L3
Au     18.980000     10.958108     2.384170     L3
Au     8.760000     3.371726     2.384170     L3
Au     13.140000     10.958108     2.384170     L3
Au     4.380000     5.900520     2.384170     L3
Au     13.140000     5.900520     2.384170     L3
Au     7.300000     5.900520     2.384170     L3
Au     16.059999     5.900520     2.384170     L3
Au     10.220000     5.900520     2.384170     L3
Au     8.760000     1.685863     4.768340     L3
Au     13.140000     9.272245     4.768340     L3
Au     2.920000     1.685863     4.768340     L3
Au     11.680000     1.685863     4.768340     L3
Au     7.300000     9.272245     4.768340     L3
Au     16.059999     9.272245     4.768340     L3
Au     5.840000     1.685863     4.768340     L3
Au     14.600000     1.685863     4.768340     L3
Au     10.220000     9.272245     4.768340     L3
Au     18.980000     9.272245     4.768340     L3
Au     10.220000     4.214657     4.768340     L3
Au     14.600000     11.801040     4.768340     L3
Au     4.380000     4.214657     4.768340     L3
Au     13.140000     4.214657     4.768340     L3
Au     8.760000     11.801040     4.768340     L3
Au     17.520000     11.801040     4.768340     L3
Au     7.300000     4.214657     4.768340     L3
Au     16.059999     4.214657     4.768340     L3
Au     11.680000     11.801040     4.768340     L3
Au     20.440001     11.801040     4.768340     L3
Au     11.680000     6.743451     4.768340     L3
Au     5.840000     6.743451     4.768340     L3
Au     14.600000     6.743451     4.768340     L3
Au     8.760000     6.743451     4.768340     L3
Au     17.520000     6.743451     4.768340     L3
Au     0.000000     0.000000     7.152510     L2
Au     8.760000     0.000000     7.152510     L2
Au     4.380000     7.586382     7.152510     L2
Au     13.140000     7.586382     7.152510     L2
Au     2.920000     0.000000     7.152510     L2
Au     11.680000     0.000000     7.152510     L2
Au     7.300000     7.586382     7.152510     L2
Au     16.059999     7.586382     7.152510     L2
Au     5.840000     0.000000     7.152510     L2
Au     10.220000     7.586382     7.152510     L2
Au     1.460000     2.528794     7.152510     L2
Au     10.220000     2.528794     7.152510     L2
Au     5.840000     10.115176     7.152510     L2
Au     14.600000     10.115176     7.152510     L2
Au     4.380000     2.528794     7.152510     L2
Au     13.140000     2.528794     7.152510     L2
Au     8.760000     10.115176     7.152510     L2
Au     17.520000     10.115176     7.152510     L2
Au     7.300000     2.528794     7.152510     L2
Au     11.680000     10.115176     7.152510     L2
Au     2.920000     5.057588     7.152510     L2
Au     11.680000     5.057588     7.152510     L2
Au     5.840000     5.057588     7.152510     L2
Au     14.600000     5.057588     7.152510     L2
Au     8.760000     5.057588     7.152510     L2
Au     1.460000     0.842931     9.536680     L2
Au     10.220000     0.842931     9.536680     L2
Au     5.840000     8.429314     9.536680     L2
Au     14.600000     8.429314     9.536680     L2
Au     4.380000     0.842931     9.536680     L2
Au     13.140000     0.842931     9.536680     L2
Au     8.760000     8.429314     9.536680     L2
Au     17.520000     8.429314     9.536680     L2
Au     7.300000     0.842931     9.536680     L2
Au     11.680000     8.429314     9.536680     L2
Au     2.920000     3.371726     9.536680     L2
Au     11.680000     3.371726     9.536680     L2
Au     7.300000     10.958108     9.536680     L2
Au     16.059999     10.958108     9.536680     L2
Au     5.840000     3.371726     9.536680     L2
Au     14.600000     3.371726     9.536680     L2
Au     10.220000     10.958108     9.536680     L2
Au     18.980000     10.958108     9.536680     L2
Au     8.760000     3.371726     9.536680     L2
Au     13.140000     10.958108     9.536680     L2
Au     4.380000     5.900520     9.536680     L2
Au     13.140000     5.900520     9.536680     L2
Au     7.300000     5.900520     9.536680     L2
Au     16.059999     5.900520     9.536680     L2
Au     10.220000     5.900520     9.536680     L2
Au     8.760000     1.685863     11.920850     L2
Au     13.140000     9.272245     11.920850     L2
Au     2.920000     1.685863     11.920850     L2
Au     11.680000     1.685863     11.920850     L2
Au     7.300000     9.272245     11.920850     L2
Au     16.059999     9.272245     11.920850     L2
Au     5.840000     1.685863     11.920850     L2
Au     14.600000     1.685863     11.920850     L2
Au     10.220000     9.272245     11.920850     L2
Au     18.980000     9.272245     11.920850     L2
Au     10.220000     4.214657     11.920850     L2
Au     14.600000     11.801040     11.920850     L2
Au     4.380000     4.214657     11.920850     L2
Au     13.140000     4.214657     11.920850     L2
Au     8.760000     11.801040     11.920850     L2
Au     17.520000     11.801040     11.920850     L2
Au     7.300000     4.214657     11.920850     L2
Au     16.059999     4.214657     11.920850     L2
Au     11.680000     11.801040     11.920850     L2
Au     20.440001     11.801040     11.920850     L2
Au     11.680000     6.743451     11.920850     L2
Au     5.840000     6.743451     11.920850     L2
Au     14.600000     6.743451     11.920850     L2
Au     8.760000     6.743451     11.920850     L2
Au     17.520000     6.743451     11.920850     L2
Au     0.000000     0.000000     14.305019     L1
Au     8.760000     0.000000     14.305019     L1
Au     4.380000     7.586382     14.305019     L1
Au     13.140000     7.586382     14.305019     L1
Au     2.920000     0.000000     14.305019     L1
Au     11.680000     0.000000     14.305019     L1
Au     7.300000     7.586382     14.305019     L1
Au     16.059999     7.586382     14.305019     L1
Au     5.840000     0.000000     14.305019     L1
Au     10.220000     7.586382     14.305019     L1
Au     1.460000     2.528794     14.305019     L1
Au     10.220000     2.528794     14.305019     L1
Au     5.840000     10.115176     14.305019     L1
Au     14.600000     10.115176     14.305019     L1
Au     4.380000     2.528794     14.305019     L1
Au     13.140000     2.528794     14.305019     L1
Au     8.760000     10.115176     14.305019     L1
Au     17.520000     10.115176     14.305019     L1
Au     7.300000     2.528794     14.305019     L1
Au     11.680000     10.115176     14.305019     L1
Au     2.920000     5.057588     14.305019     L1
Au     11.680000     5.057588     14.305019     L1
Au     5.840000     5.057588     14.305019     L1
Au     14.600000     5.057588     14.305019     L1
Au     8.760000     5.057588     14.305019     L1
Au     1.460000     0.842931     16.689190     L1
Au     10.220000     0.842931     16.689190     L1
Au     5.840000     8.429314     16.689190     L1
Au     14.600000     8.429314     16.689190     L1
Au     4.380000     0.842931     16.689190     L1
Au     13.140000     0.842931     16.689190     L1
Au     8.760000     8.429314     16.689190     L1
Au     17.520000     8.429314     16.689190     L1
Au     7.300000     0.842931     16.689190     L1
Au     11.680000     8.429314     16.689190     L1
Au     2.920000     3.371726     16.689190     L1
Au     11.680000     3.371726     16.689190     L1
Au     7.300000     10.958108     16.689190     L1
Au     16.059999     10.958108     16.689190     L1
Au     5.840000     3.371726     16.689190     L1
Au     14.600000     3.371726     16.689190     L1
Au     10.220000     10.958108     16.689190     L1
Au     18.980000     10.958108     16.689190     L1
Au     8.760000     3.371726     16.689190     L1
Au     13.140000     10.958108     16.689190     L1
Au     4.380000     5.900520     16.689190     L1
Au     13.140000     5.900520     16.689190     L1
Au     7.300000     5.900520     16.689190     L1
Au     16.059999     5.900520     16.689190     L1
Au     10.220000     5.900520     16.689190     L1
Au     8.760000     1.685863     19.073360     L1
Au     13.140000     9.272245     19.073360     L1
Au     2.920000     1.685863     19.073360     L1
Au     11.680000     1.685863     19.073360     L1
Au     7.300000     9.272245     19.073360     L1
Au     16.059999     9.272245     19.073360     L1
Au     5.840000     1.685863     19.073360     L1
Au     14.600000     1.685863     19.073360     L1
Au     10.220000     9.272245     19.073360     L1
Au     18.980000     9.272245     19.073360     L1
Au     10.220000     4.214657     19.073360     L1
Au     14.600000     11.801040     19.073360     L1
Au     4.380000     4.214657     19.073360     L1
Au     13.140000     4.214657     19.073360     L1
Au     8.760000     11.801040     19.073360     L1
Au     17.520000     11.801040     19.073360     L1
Au     7.300000     4.214657     19.073360     L1
Au     16.059999     4.214657     19.073360     L1
Au     11.680000     11.801040     19.073360     L1
Au     20.440001     11.801040     19.073360     L1
Au     11.680000     6.743451     19.073360     L1
Au     5.840000     6.743451     19.073360     L1
Au     14.600000     6.743451     19.073360     L1
Au     8.760000     6.743451     19.073360     L1
Au     17.520000     6.743451     19.073360     L1
Au    0.0000000000    0.0000000000    21.2229166169    L0
Au    8.7600000000    0.0000000000    21.2346197084    L0
Au    4.3800000000    7.5863820000    21.269381729    L0
Au    13.1400000000    7.5863820000    21.3062726717    L0
Au    2.9200000000    0.0000000000    21.2078534376    L0
Au    11.6800000000    0.0000000000    21.2350878144    L0
Au    7.3000000000    7.5863820000    21.2969927883    L0
Au    16.0599990000    7.5863820000    21.2712190786    L0
Au    5.8400000000    0.0000000000    21.2222893223    L0
Au    10.2200000000    7.5863820000    21.2740826266    L0
Au    1.4600000000    2.5287940000    21.2410276663    L0
Au    10.2200000000    2.5287940000    21.249623955    L0
Au    5.8400000000    10.1151760000    21.2488897955    L0
Au    14.6000000000    10.1151760000    21.2498285701    L0
Au    4.3800000000    2.5287940000    21.2402182056    L0
Au    13.1400000000    2.5287940000    21.2605197403    L0
Au    8.7600000000    10.1151760000    21.2290631926    L0
Au    17.5200000000    10.1151760000    21.2416337428    L0
Au    7.3000000000    2.5287940000    21.2587082078    L0
Au    11.6800000000    10.1151760000    21.2305361089    L0
Au    2.9200000000    5.0575880000    21.2462604418    L0
Au    11.6800000000    5.0575880000    21.3091145683    L0
Au    5.8400000000    5.0575880000    21.3161848981    L0
Au    14.6000000000    5.0575880000    21.3197334045    L0
Au    8.7600000000    5.0575880000    21.3033398913    L0
Au    1.4600000000    0.8429310000    23.8493552502    L0
Au    10.2200000000    0.8429310000    23.8624227048    L0
Au    5.8400000000    8.4293140000    23.8908553472    L0
Au    14.6000000000    8.4293140000    23.894868491    L0
Au    4.3800000000    0.8429310000    23.8489538557    L0
Au    13.1400000000    0.8429310000    23.8643090917    L0
Au    8.7600000000    8.4293140000    23.877815009    L0
Au    17.5200000000    8.4293140000    23.8860738266    L0
Au    7.3000000000    0.8429310000    23.8628229469    L0
Au    11.6800000000    8.4293140000    23.8846385439    L0
Au    2.9200000000    3.3717260000    23.8703482058    L0
Au    11.6800000000    3.3717260000    23.8737000114    L0
Au    7.3000000000    10.9581080000    23.8522886018    L0
Au    16.0599990000    10.9581080000    23.86473961    L0
Au    5.8400000000    3.3717260000    23.887786526    L0
Au    14.6000000000    3.3717260000    23.8900512576    L0
Au    10.2200000000    10.9581080000    23.8086921694    L0
Au    18.9800000000    10.9581080000    23.8650748284    L0
Au    8.7600000000    3.3717260000    23.871199980900002    L0
Au    13.1400000000    10.9581080000    23.8529230552    L0
Au    4.3800000000    5.9005200000    23.8931199805    L0
Au    13.1400000000    5.9005200000    24.0044787476    L0
Au    7.3000000000    5.9005200000    23.9933025647    L0
Au    16.0599990000    5.9005200000    23.8955564019    L0
Au    10.2200000000    5.9005200000    23.9266156672    L0
Au    8.7600000000    1.6858630000    26.490018551    L0
Au    13.1400000000    9.2722450000    26.4793372265    L0
Au    2.9200000000    1.6858630000    26.4815274829    L0
Au    11.6800000000    1.6858630000    26.4918869436    L0
Au    7.3000000000    9.2722450000    26.4747271765    L0
Au    16.0599990000    9.2722450000    26.5082035676    L0
Au    5.8400000000    1.6858630000    26.492802938700002    L0
Au    14.6000000000    1.6858630000    26.4940674914    L0
Au    10.2200000000    9.2722450000    26.3499385141    L0
Au    18.9800000000    9.2722450000    26.5076257138    L0
Au    10.2200000000    4.2146570000    26.4034261048    L0
Au    14.6000000000    11.8010400000    26.4847198393    L0
Au    4.3800000000    4.2146570000    26.5118849216    L0
Au    13.1400000000    4.2146570000    26.5354690381    L0
Au    8.7600000000    11.8010400000    26.4597674662    L0
Au    17.5200000000    11.8010400000    26.4859150231    L0
Au    7.3000000000    4.2146570000    26.5288941366    L0
Au    16.0599990000    4.2146570000    26.5132581532    L0
Au    11.6800000000    11.8010400000    26.4600862362    L0
Au    20.4400010000    11.8010400000    26.4861733575    L0
Au    11.6800000000    6.7434510000    26.660455507    L0
Au    5.8400000000    6.7434510000    26.5372572827    L0
Au    14.6000000000    6.7434510000    26.5433405297    L0
Au    8.7600000000    6.7434510000    26.6206252404    L0
Au    17.5200000000    6.7434510000    26.516450442500002    L0
C    10.462966713081126    13.268588211432903    34.90027915158343    S1
N    10.266021492690431    12.206382564660299    34.454993903433824    S1
H    10.647964160088216    14.249092410436777    35.312186314622174    S1
C    9.39937122443328    6.395620679532594    41.312427622864654    S
C    8.109973017279222    6.162686374802307    40.7973623858347    S
C    7.510074747782902    7.106715412806031    39.95802710157812    S
C    8.164396287257087    8.303457279556463    39.60958072216541    S
C    10.05473238866385    7.600283128442326    40.999555743471255    S
C    9.43831608129532    8.535013042195825    40.15947225734948    S
C    8.163251302090375    9.270400247363195    32.16858147024957    S
H    6.5120458756337385    6.901997191388787    39.55261264440074    S
S    10.137066773818198    5.119287068300046    42.3194628358735    S
H    11.0526573223452    7.806966562518576    41.401493734914624    S
H    9.97058638422272    9.461589583112525    39.91300599748737    S
H    7.579331362667807    5.237410913856076    41.04556414809476    S
C    9.471626623923978    9.601311907997045    31.767555622605848    S
C    10.103458570451659    8.927298541062026    30.716439485684262    S
C    9.432136940964376    7.895560777982432    30.034831224738834    S
C    8.112320554607209    7.574810030893929    30.40308557768836    S
C    7.495289912834758    8.256316350090794    31.457940823721017    S
H    11.127153329634947    9.19891221832027    30.43569811569949    S
H    10.011928896337093    10.389681730622973    32.30467914342205    S
H    7.570594408960295    6.7853686651544525    29.871281299898186    S
H    6.472034329106361    7.983728392919576    31.743008396725873    S
S    10.1896642657    6.9401248065    28.729184104999998    S
C    7.57951603380456    9.237719253749848    38.57281944538344    S
C    7.557353171865295    9.893694571013246    33.407406888631186    S
C    8.021723855752168    9.12625485101192    34.66243026313372    S
C    8.02476863885099    8.805791636435634    37.15966952884322    S
H    6.474548452778519    9.234238751046027    38.63066986525564    S
H    7.906087993467449    10.277670986383757    38.76305801990414    S
H    7.8656220900488805    10.951557210971224    33.49494187755024    S
H    6.452605548305396    9.877316924693883    33.34601924327976    S
C    7.501376570914907    9.66450740083492    36.00126800792452    S
H    7.713189541508651    7.754644629372995    37.002270939689474    S
H    9.13178656872279    8.793982366868184    37.13037983197488    S
H    6.39293316884576    9.67298710078254    36.00594262225875    S
H    7.824619113405809    10.716323935076936    36.13136324344501    S
H    7.726508983735958    8.063884061379273    34.55570493711052    S
H    9.128320927014075    9.132598125966645    34.679913397389875    S
Au    8.7600020000    1.6858630000    44.6879267454    R0
Au    13.1400000000    9.2722460000    44.740117702999996    R0
Au    2.9200000000    1.6858630000    44.7311319493    R0
Au    11.6800000000    1.6858630000    44.6858232797    R0
Au    7.3000000000    9.2722460000    44.7354911818    R0
Au    16.0599990000    9.2722460000    44.7340524535    R0
Au    5.8400010000    1.6858630000    44.713021901000005    R0
Au    14.6000000000    1.6858630000    44.7159334048    R0
Au    10.2200000000    9.2722460000    44.747614721299996    R0
Au    18.9800000000    9.2722460000    44.7330235637    R0
Au    10.2200010000    4.2146570000    44.5908232699    R0
Au    14.6000000000    11.8010400000    44.7166432577    R0
Au    4.3800000000    4.2146570000    44.722378446    R0
Au    13.1400000000    4.2146570000    44.7073350047    R0
Au    8.7600000000    11.8010400000    44.7366019097    R0
Au    17.5200000000    11.8010400000    44.7026249706    R0
Au    7.3000000000    4.2146570000    44.7068248327    R0
Au    16.0599990000    4.2146570000    44.724039355100004    R0
Au    11.6800000000    11.8010400000    44.7363682293    R0
Au    20.4400010000    11.8010400000    44.7187677972    R0
Au    11.6800000000    6.7434510000    44.809952794    R0
Au    5.8400000000    6.7434510000    44.732840294599995    R0
Au    14.6000000000    6.7434510000    44.7366826504    R0
Au    8.7600000000    6.7434510000    44.7768728399    R0
Au    17.5200000000    6.7434510000    44.7353033685    R0
Au    1.4600000000    0.8429310000    47.3559218936    R0
Au    10.2200000000    0.8429310000    47.3040996391    R0
Au    5.8400010000    8.4293140000    47.358581978800004    R0
Au    14.6000000000    8.4293140000    47.362162405700005    R0
Au    4.3800000000    0.8429310000    47.3538572948    R0
Au    13.1400010000    0.8429310000    47.3267322408    R0
Au    8.7600000000    8.4293140000    47.3585855173    R0
Au    17.5200000000    8.4293140000    47.361365835499996    R0
Au    7.3000010000    0.8429310000    47.323209790199996    R0
Au    11.6800000000    8.4293140000    47.3748968819    R0
Au    2.9200000000    3.3717260000    47.3554895172    R0
Au    11.6800010000    3.3717260000    47.2512026458    R0
Au    7.3000000000    10.9581090000    47.3596012349    R0
Au    16.0599980000    10.9581090000    47.3425960054    R0
Au    5.8400000000    3.3717260000    47.3290824963    R0
Au    14.6000000000    3.3717260000    47.3328685865    R0
Au    10.2200000000    10.9581090000    47.3650323044    R0
Au    18.9800000000    10.9581090000    47.343959883    R0
Au    8.7600000000    3.3717260000    47.2565716756    R0
Au    13.1399990000    10.9581090000    47.3589830559    R0
Au    4.3800000000    5.9005200000    47.3547746936    R0
Au    13.1400000000    5.9005200000    47.3529588623    R0
Au    7.3000000000    5.9005200000    47.3399782411    R0
Au    16.0599990000    5.9005200000    47.356739236500005    R0
Au    10.2200000000    5.9005200000    47.3376425349    R0
Au    0.0000000000    0.0000000000    49.978377885    R0
Au    8.7600000000    0.0000000000    49.9368176098    R0
Au    4.3800000000    7.5863820000    49.9844829535    R0
Au    13.1399990000    7.5863820000    49.9812974521    R0
Au    2.9200000000    0.0000000000    49.9806992926    R0
Au    11.6800000000    0.0000000000    49.9390781642    R0
Au    7.3000000000    7.5863820000    49.9699603106    R0
Au    16.0599990000    7.5863820000    49.9874696791    R0
Au    5.8400000000    0.0000000000    49.973637830200005    R0
Au    10.2200000000    7.5863820000    49.969089616299996    R0
Au    1.4600000000    2.5287940000    49.976693876599995    R0
Au    10.2200000000    2.5287940000    49.8968221182    R0
Au    5.8400000000    10.1151760000    49.985590817399995    R0
Au    14.6000000000    10.1151760000    49.9853697998    R0
Au    4.3800000000    2.5287940000    49.9725101887    R0
Au    13.1400000000    2.5287940000    49.913802737699996    R0
Au    8.7600000000    10.1151760000    49.9840259667    R0
Au    17.5200000000    10.1151760000    49.9776762101    R0
Au    7.3000000000    2.5287940000    49.912260524000004    R0
Au    11.6800000000    10.1151760000    49.9910317507    R0
Au    2.9200000000    5.0575880000    49.9890392924    R0
Au    11.6800000000    5.0575880000    49.944991313100005    R0
Au    5.8400000000    5.0575880000    49.953995537400004    R0
Au    14.6000000000    5.0575880000    49.9605630513    R0
Au    8.7600000000    5.0575880000    49.9397741666    R0
Au    8.760002    1.685863   52.00457237260001 R1
Au   13.140000    9.272246   52.00457237260001 R1
Au    2.920000    1.685863   52.00457237260001 R1
Au   11.680000    1.685863   52.00457237260001 R1
Au    7.300000    9.272246   52.00457237260001 R1
Au   16.059999    9.272246   52.00457237260001 R1
Au    5.840001    1.685863   52.00457237260001 R1
Au   14.600000    1.685863   52.00457237260001 R1
Au   10.220000    9.272246   52.00457237260001 R1
Au   18.980000    9.272246   52.00457237260001 R1
Au   10.220001    4.214657   52.00457237260001 R1
Au   14.600000   11.801040   52.00457237260001 R1
Au    4.380000    4.214657   52.00457237260001 R1
Au   13.140000    4.214657   52.00457237260001 R1
Au    8.760000   11.801040   52.00457237260001 R1
Au   17.520000   11.801040   52.00457237260001 R1
Au    7.300000    4.214657   52.00457237260001 R1
Au   16.059999    4.214657   52.00457237260001 R1
Au   11.680000   11.801040   52.00457237260001 R1
Au   20.440001   11.801040   52.00457237260001 R1
Au   11.680000    6.743451   52.00457237260001 R1
Au    5.840000    6.743451   52.00457237260001 R1
Au   14.600000    6.743451   52.00457237260001 R1
Au    8.760000    6.743451   52.00457237260001 R1
Au   17.520000    6.743451   52.00457237260001 R1
Au    1.460000    0.842931   54.38874237260001 R1
Au   10.220000    0.842931   54.38874237260001 R1
Au    5.840001    8.429314   54.38874237260001 R1
Au   14.600000    8.429314   54.38874237260001 R1
Au    4.380000    0.842931   54.38874237260001 R1
Au   13.140001    0.842931   54.38874237260001 R1
Au    8.760000    8.429314   54.38874237260001 R1
Au   17.520000    8.429314   54.38874237260001 R1
Au    7.300001    0.842931   54.38874237260001 R1
Au   11.680000    8.429314   54.38874237260001 R1
Au    2.920000    3.371726   54.38874237260001 R1
Au   11.680001    3.371726   54.38874237260001 R1
Au    7.300000   10.958109   54.38874237260001 R1
Au   16.059998   10.958109   54.38874237260001 R1
Au    5.840000    3.371726   54.38874237260001 R1
Au   14.600000    3.371726   54.38874237260001 R1
Au   10.220000   10.958109   54.38874237260001 R1
Au   18.980000   10.958109   54.38874237260001 R1
Au    8.760000    3.371726   54.38874237260001 R1
Au   13.139999   10.958109   54.38874237260001 R1
Au    4.380000    5.900520   54.38874237260001 R1
Au   13.140000    5.900520   54.38874237260001 R1
Au    7.300000    5.900520   54.38874237260001 R1
Au   16.059999    5.900520   54.38874237260001 R1
Au   10.220000    5.900520   54.38874237260001 R1
Au    0.000000    0.000000   56.77291237260001 R1
Au    8.760000    0.000000   56.77291237260001 R1
Au    4.380000    7.586382   56.77291237260001 R1
Au   13.139999    7.586382   56.77291237260001 R1
Au    2.920000    0.000000   56.77291237260001 R1
Au   11.680000    0.000000   56.77291237260001 R1
Au    7.300000    7.586382   56.77291237260001 R1
Au   16.059999    7.586382   56.77291237260001 R1
Au    5.840000    0.000000   56.77291237260001 R1
Au   10.220000    7.586382   56.77291237260001 R1
Au    1.460000    2.528794   56.77291237260001 R1
Au   10.220000    2.528794   56.77291237260001 R1
Au    5.840000   10.115176   56.77291237260001 R1
Au   14.600000   10.115176   56.77291237260001 R1
Au    4.380000    2.528794   56.77291237260001 R1
Au   13.140000    2.528794   56.77291237260001 R1
Au    8.760000   10.115176   56.77291237260001 R1
Au   17.520000   10.115176   56.77291237260001 R1
Au    7.300000    2.528794   56.77291237260001 R1
Au   11.680000   10.115176   56.77291237260001 R1
Au    2.920000    5.057588   56.77291237260001 R1
Au   11.680000    5.057588   56.77291237260001 R1
Au    5.840000    5.057588   56.77291237260001 R1
Au   14.600000    5.057588   56.77291237260001 R1
Au    8.760000    5.057588   56.77291237260001 R1
Au    8.760002    1.685863   59.15708237260001 R2
Au   13.140000    9.272246   59.15708237260001 R2
Au    2.920000    1.685863   59.15708237260001 R2
Au   11.680000    1.685863   59.15708237260001 R2
Au    7.300000    9.272246   59.15708237260001 R2
Au   16.059999    9.272246   59.15708237260001 R2
Au    5.840001    1.685863   59.15708237260001 R2
Au   14.600000    1.685863   59.15708237260001 R2
Au   10.220000    9.272246   59.15708237260001 R2
Au   18.980000    9.272246   59.15708237260001 R2
Au   10.220001    4.214657   59.15708237260001 R2
Au   14.600000   11.801040   59.15708237260001 R2
Au    4.380000    4.214657   59.15708237260001 R2
Au   13.140000    4.214657   59.15708237260001 R2
Au    8.760000   11.801040   59.15708237260001 R2
Au   17.520000   11.801040   59.15708237260001 R2
Au    7.300000    4.214657   59.15708237260001 R2
Au   16.059999    4.214657   59.15708237260001 R2
Au   11.680000   11.801040   59.15708237260001 R2
Au   20.440001   11.801040   59.15708237260001 R2
Au   11.680000    6.743451   59.15708237260001 R2
Au    5.840000    6.743451   59.15708237260001 R2
Au   14.600000    6.743451   59.15708237260001 R2
Au    8.760000    6.743451   59.15708237260001 R2
Au   17.520000    6.743451   59.15708237260001 R2
Au    1.460000    0.842931   61.541252372600006 R2
Au   10.220000    0.842931   61.541252372600006 R2
Au    5.840001    8.429314   61.541252372600006 R2
Au   14.600000    8.429314   61.541252372600006 R2
Au    4.380000    0.842931   61.541252372600006 R2
Au   13.140001    0.842931   61.541252372600006 R2
Au    8.760000    8.429314   61.541252372600006 R2
Au   17.520000    8.429314   61.541252372600006 R2
Au    7.300001    0.842931   61.541252372600006 R2
Au   11.680000    8.429314   61.541252372600006 R2
Au    2.920000    3.371726   61.541252372600006 R2
Au   11.680001    3.371726   61.541252372600006 R2
Au    7.300000   10.958109   61.541252372600006 R2
Au   16.059998   10.958109   61.541252372600006 R2
Au    5.840000    3.371726   61.541252372600006 R2
Au   14.600000    3.371726   61.541252372600006 R2
Au   10.220000   10.958109   61.541252372600006 R2
Au   18.980000   10.958109   61.541252372600006 R2
Au    8.760000    3.371726   61.541252372600006 R2
Au   13.139999   10.958109   61.541252372600006 R2
Au    4.380000    5.900520   61.541252372600006 R2
Au   13.140000    5.900520   61.541252372600006 R2
Au    7.300000    5.900520   61.541252372600006 R2
Au   16.059999    5.900520   61.541252372600006 R2
Au   10.220000    5.900520   61.541252372600006 R2
Au    0.000000    0.000000   63.92542237260001 R2
Au    8.760000    0.000000   63.92542237260001 R2
Au    4.380000    7.586382   63.92542237260001 R2
Au   13.139999    7.586382   63.92542237260001 R2
Au    2.920000    0.000000   63.92542237260001 R2
Au   11.680000    0.000000   63.92542237260001 R2
Au    7.300000    7.586382   63.92542237260001 R2
Au   16.059999    7.586382   63.92542237260001 R2
Au    5.840000    0.000000   63.92542237260001 R2
Au   10.220000    7.586382   63.92542237260001 R2
Au    1.460000    2.528794   63.92542237260001 R2
Au   10.220000    2.528794   63.92542237260001 R2
Au    5.840000   10.115176   63.92542237260001 R2
Au   14.600000   10.115176   63.92542237260001 R2
Au    4.380000    2.528794   63.92542237260001 R2
Au   13.140000    2.528794   63.92542237260001 R2
Au    8.760000   10.115176   63.92542237260001 R2
Au   17.520000   10.115176   63.92542237260001 R2
Au    7.300000    2.528794   63.92542237260001 R2
Au   11.680000   10.115176   63.92542237260001 R2
Au    2.920000    5.057588   63.92542237260001 R2
Au   11.680000    5.057588   63.92542237260001 R2
Au    5.840000    5.057588   63.92542237260001 R2
Au   14.600000    5.057588   63.92542237260001 R2
Au    8.760000    5.057588   63.92542237260001 R2
Au    8.760002    1.685863   66.30959237260001 R3
Au   13.140000    9.272246   66.30959237260001 R3
Au    2.920000    1.685863   66.30959237260001 R3
Au   11.680000    1.685863   66.30959237260001 R3
Au    7.300000    9.272246   66.30959237260001 R3
Au   16.059999    9.272246   66.30959237260001 R3
Au    5.840001    1.685863   66.30959237260001 R3
Au   14.600000    1.685863   66.30959237260001 R3
Au   10.220000    9.272246   66.30959237260001 R3
Au   18.980000    9.272246   66.30959237260001 R3
Au   10.220001    4.214657   66.30959237260001 R3
Au   14.600000   11.801040   66.30959237260001 R3
Au    4.380000    4.214657   66.30959237260001 R3
Au   13.140000    4.214657   66.30959237260001 R3
Au    8.760000   11.801040   66.30959237260001 R3
Au   17.520000   11.801040   66.30959237260001 R3
Au    7.300000    4.214657   66.30959237260001 R3
Au   16.059999    4.214657   66.30959237260001 R3
Au   11.680000   11.801040   66.30959237260001 R3
Au   20.440001   11.801040   66.30959237260001 R3
Au   11.680000    6.743451   66.30959237260001 R3
Au    5.840000    6.743451   66.30959237260001 R3
Au   14.600000    6.743451   66.30959237260001 R3
Au    8.760000    6.743451   66.30959237260001 R3
Au   17.520000    6.743451   66.30959237260001 R3
Au    1.460000    0.842931   68.6937623726 R3
Au   10.220000    0.842931   68.6937623726 R3
Au    5.840001    8.429314   68.6937623726 R3
Au   14.600000    8.429314   68.6937623726 R3
Au    4.380000    0.842931   68.6937623726 R3
Au   13.140001    0.842931   68.6937623726 R3
Au    8.760000    8.429314   68.6937623726 R3
Au   17.520000    8.429314   68.6937623726 R3
Au    7.300001    0.842931   68.6937623726 R3
Au   11.680000    8.429314   68.6937623726 R3
Au    2.920000    3.371726   68.6937623726 R3
Au   11.680001    3.371726   68.6937623726 R3
Au    7.300000   10.958109   68.6937623726 R3
Au   16.059998   10.958109   68.6937623726 R3
Au    5.840000    3.371726   68.6937623726 R3
Au   14.600000    3.371726   68.6937623726 R3
Au   10.220000   10.958109   68.6937623726 R3
Au   18.980000   10.958109   68.6937623726 R3
Au    8.760000    3.371726   68.6937623726 R3
Au   13.139999   10.958109   68.6937623726 R3
Au    4.380000    5.900520   68.6937623726 R3
Au   13.140000    5.900520   68.6937623726 R3
Au    7.300000    5.900520   68.6937623726 R3
Au   16.059999    5.900520   68.6937623726 R3
Au   10.220000    5.900520   68.6937623726 R3
Au    0.000000    0.000000   71.0779323726 R3
Au    8.760000    0.000000   71.0779323726 R3
Au    4.380000    7.586382   71.0779323726 R3
Au   13.139999    7.586382   71.0779323726 R3
Au    2.920000    0.000000   71.0779323726 R3
Au   11.680000    0.000000   71.0779323726 R3
Au    7.300000    7.586382   71.0779323726 R3
Au   16.059999    7.586382   71.0779323726 R3
Au    5.840000    0.000000   71.0779323726 R3
Au   10.220000    7.586382   71.0779323726 R3
Au    1.460000    2.528794   71.0779323726 R3
Au   10.220000    2.528794   71.0779323726 R3
Au    5.840000   10.115176   71.0779323726 R3
Au   14.600000   10.115176   71.0779323726 R3
Au    4.380000    2.528794   71.0779323726 R3
Au   13.140000    2.528794   71.0779323726 R3
Au    8.760000   10.115176   71.0779323726 R3
Au   17.520000   10.115176   71.0779323726 R3
Au    7.300000    2.528794   71.0779323726 R3
Au   11.680000   10.115176   71.0779323726 R3
Au    2.920000    5.057588   71.0779323726 R3
Au   11.680000    5.057588   71.0779323726 R3
Au    5.840000    5.057588   71.0779323726 R3
Au   14.600000    5.057588   71.0779323726 R3
Au    8.760000    5.057588   71.0779323726 R3
