 420
 i =       82, E =     -3365.3998523447
Au     0.000000     0.000000     0.000000     L3
Au     8.760000     0.000000     0.000000     L3
Au     4.380000     7.586382     0.000000     L3
Au     13.140000     7.586382     0.000000     L3
Au     2.920000     0.000000     0.000000     L3
Au     11.680000     0.000000     0.000000     L3
Au     7.300000     7.586382     0.000000     L3
Au     16.059999     7.586382     0.000000     L3
Au     5.840000     0.000000     0.000000     L3
Au     10.220000     7.586382     0.000000     L3
Au     1.460000     2.528794     0.000000     L3
Au     10.220000     2.528794     0.000000     L3
Au     5.840000     10.115176     0.000000     L3
Au     14.600000     10.115176     0.000000     L3
Au     4.380000     2.528794     0.000000     L3
Au     13.140000     2.528794     0.000000     L3
Au     8.760000     10.115176     0.000000     L3
Au     17.520000     10.115176     0.000000     L3
Au     7.300000     2.528794     0.000000     L3
Au     11.680000     10.115176     0.000000     L3
Au     2.920000     5.057588     0.000000     L3
Au     11.680000     5.057588     0.000000     L3
Au     5.840000     5.057588     0.000000     L3
Au     14.600000     5.057588     0.000000     L3
Au     8.760000     5.057588     0.000000     L3
Au     1.460000     0.842931     2.384170     L3
Au     10.220000     0.842931     2.384170     L3
Au     5.840000     8.429314     2.384170     L3
Au     14.600000     8.429314     2.384170     L3
Au     4.380000     0.842931     2.384170     L3
Au     13.140000     0.842931     2.384170     L3
Au     8.760000     8.429314     2.384170     L3
Au     17.520000     8.429314     2.384170     L3
Au     7.300000     0.842931     2.384170     L3
Au     11.680000     8.429314     2.384170     L3
Au     2.920000     3.371726     2.384170     L3
Au     11.680000     3.371726     2.384170     L3
Au     7.300000     10.958108     2.384170     L3
Au     16.059999     10.958108     2.384170     L3
Au     5.840000     3.371726     2.384170     L3
Au     14.600000     3.371726     2.384170     L3
Au     10.220000     10.958108     2.384170     L3
Au     18.980000     10.958108     2.384170     L3
Au     8.760000     3.371726     2.384170     L3
Au     13.140000     10.958108     2.384170     L3
Au     4.380000     5.900520     2.384170     L3
Au     13.140000     5.900520     2.384170     L3
Au     7.300000     5.900520     2.384170     L3
Au     16.059999     5.900520     2.384170     L3
Au     10.220000     5.900520     2.384170     L3
Au     8.760000     1.685863     4.768340     L3
Au     13.140000     9.272245     4.768340     L3
Au     2.920000     1.685863     4.768340     L3
Au     11.680000     1.685863     4.768340     L3
Au     7.300000     9.272245     4.768340     L3
Au     16.059999     9.272245     4.768340     L3
Au     5.840000     1.685863     4.768340     L3
Au     14.600000     1.685863     4.768340     L3
Au     10.220000     9.272245     4.768340     L3
Au     18.980000     9.272245     4.768340     L3
Au     10.220000     4.214657     4.768340     L3
Au     14.600000     11.801040     4.768340     L3
Au     4.380000     4.214657     4.768340     L3
Au     13.140000     4.214657     4.768340     L3
Au     8.760000     11.801040     4.768340     L3
Au     17.520000     11.801040     4.768340     L3
Au     7.300000     4.214657     4.768340     L3
Au     16.059999     4.214657     4.768340     L3
Au     11.680000     11.801040     4.768340     L3
Au     20.440001     11.801040     4.768340     L3
Au     11.680000     6.743451     4.768340     L3
Au     5.840000     6.743451     4.768340     L3
Au     14.600000     6.743451     4.768340     L3
Au     8.760000     6.743451     4.768340     L3
Au     17.520000     6.743451     4.768340     L3
Au     0.000000     0.000000     7.152510     L2
Au     8.760000     0.000000     7.152510     L2
Au     4.380000     7.586382     7.152510     L2
Au     13.140000     7.586382     7.152510     L2
Au     2.920000     0.000000     7.152510     L2
Au     11.680000     0.000000     7.152510     L2
Au     7.300000     7.586382     7.152510     L2
Au     16.059999     7.586382     7.152510     L2
Au     5.840000     0.000000     7.152510     L2
Au     10.220000     7.586382     7.152510     L2
Au     1.460000     2.528794     7.152510     L2
Au     10.220000     2.528794     7.152510     L2
Au     5.840000     10.115176     7.152510     L2
Au     14.600000     10.115176     7.152510     L2
Au     4.380000     2.528794     7.152510     L2
Au     13.140000     2.528794     7.152510     L2
Au     8.760000     10.115176     7.152510     L2
Au     17.520000     10.115176     7.152510     L2
Au     7.300000     2.528794     7.152510     L2
Au     11.680000     10.115176     7.152510     L2
Au     2.920000     5.057588     7.152510     L2
Au     11.680000     5.057588     7.152510     L2
Au     5.840000     5.057588     7.152510     L2
Au     14.600000     5.057588     7.152510     L2
Au     8.760000     5.057588     7.152510     L2
Au     1.460000     0.842931     9.536680     L2
Au     10.220000     0.842931     9.536680     L2
Au     5.840000     8.429314     9.536680     L2
Au     14.600000     8.429314     9.536680     L2
Au     4.380000     0.842931     9.536680     L2
Au     13.140000     0.842931     9.536680     L2
Au     8.760000     8.429314     9.536680     L2
Au     17.520000     8.429314     9.536680     L2
Au     7.300000     0.842931     9.536680     L2
Au     11.680000     8.429314     9.536680     L2
Au     2.920000     3.371726     9.536680     L2
Au     11.680000     3.371726     9.536680     L2
Au     7.300000     10.958108     9.536680     L2
Au     16.059999     10.958108     9.536680     L2
Au     5.840000     3.371726     9.536680     L2
Au     14.600000     3.371726     9.536680     L2
Au     10.220000     10.958108     9.536680     L2
Au     18.980000     10.958108     9.536680     L2
Au     8.760000     3.371726     9.536680     L2
Au     13.140000     10.958108     9.536680     L2
Au     4.380000     5.900520     9.536680     L2
Au     13.140000     5.900520     9.536680     L2
Au     7.300000     5.900520     9.536680     L2
Au     16.059999     5.900520     9.536680     L2
Au     10.220000     5.900520     9.536680     L2
Au     8.760000     1.685863     11.920850     L2
Au     13.140000     9.272245     11.920850     L2
Au     2.920000     1.685863     11.920850     L2
Au     11.680000     1.685863     11.920850     L2
Au     7.300000     9.272245     11.920850     L2
Au     16.059999     9.272245     11.920850     L2
Au     5.840000     1.685863     11.920850     L2
Au     14.600000     1.685863     11.920850     L2
Au     10.220000     9.272245     11.920850     L2
Au     18.980000     9.272245     11.920850     L2
Au     10.220000     4.214657     11.920850     L2
Au     14.600000     11.801040     11.920850     L2
Au     4.380000     4.214657     11.920850     L2
Au     13.140000     4.214657     11.920850     L2
Au     8.760000     11.801040     11.920850     L2
Au     17.520000     11.801040     11.920850     L2
Au     7.300000     4.214657     11.920850     L2
Au     16.059999     4.214657     11.920850     L2
Au     11.680000     11.801040     11.920850     L2
Au     20.440001     11.801040     11.920850     L2
Au     11.680000     6.743451     11.920850     L2
Au     5.840000     6.743451     11.920850     L2
Au     14.600000     6.743451     11.920850     L2
Au     8.760000     6.743451     11.920850     L2
Au     17.520000     6.743451     11.920850     L2
Au     0.000000     0.000000     14.305019     L1
Au     8.760000     0.000000     14.305019     L1
Au     4.380000     7.586382     14.305019     L1
Au     13.140000     7.586382     14.305019     L1
Au     2.920000     0.000000     14.305019     L1
Au     11.680000     0.000000     14.305019     L1
Au     7.300000     7.586382     14.305019     L1
Au     16.059999     7.586382     14.305019     L1
Au     5.840000     0.000000     14.305019     L1
Au     10.220000     7.586382     14.305019     L1
Au     1.460000     2.528794     14.305019     L1
Au     10.220000     2.528794     14.305019     L1
Au     5.840000     10.115176     14.305019     L1
Au     14.600000     10.115176     14.305019     L1
Au     4.380000     2.528794     14.305019     L1
Au     13.140000     2.528794     14.305019     L1
Au     8.760000     10.115176     14.305019     L1
Au     17.520000     10.115176     14.305019     L1
Au     7.300000     2.528794     14.305019     L1
Au     11.680000     10.115176     14.305019     L1
Au     2.920000     5.057588     14.305019     L1
Au     11.680000     5.057588     14.305019     L1
Au     5.840000     5.057588     14.305019     L1
Au     14.600000     5.057588     14.305019     L1
Au     8.760000     5.057588     14.305019     L1
Au     1.460000     0.842931     16.689190     L1
Au     10.220000     0.842931     16.689190     L1
Au     5.840000     8.429314     16.689190     L1
Au     14.600000     8.429314     16.689190     L1
Au     4.380000     0.842931     16.689190     L1
Au     13.140000     0.842931     16.689190     L1
Au     8.760000     8.429314     16.689190     L1
Au     17.520000     8.429314     16.689190     L1
Au     7.300000     0.842931     16.689190     L1
Au     11.680000     8.429314     16.689190     L1
Au     2.920000     3.371726     16.689190     L1
Au     11.680000     3.371726     16.689190     L1
Au     7.300000     10.958108     16.689190     L1
Au     16.059999     10.958108     16.689190     L1
Au     5.840000     3.371726     16.689190     L1
Au     14.600000     3.371726     16.689190     L1
Au     10.220000     10.958108     16.689190     L1
Au     18.980000     10.958108     16.689190     L1
Au     8.760000     3.371726     16.689190     L1
Au     13.140000     10.958108     16.689190     L1
Au     4.380000     5.900520     16.689190     L1
Au     13.140000     5.900520     16.689190     L1
Au     7.300000     5.900520     16.689190     L1
Au     16.059999     5.900520     16.689190     L1
Au     10.220000     5.900520     16.689190     L1
Au     8.760000     1.685863     19.073360     L1
Au     13.140000     9.272245     19.073360     L1
Au     2.920000     1.685863     19.073360     L1
Au     11.680000     1.685863     19.073360     L1
Au     7.300000     9.272245     19.073360     L1
Au     16.059999     9.272245     19.073360     L1
Au     5.840000     1.685863     19.073360     L1
Au     14.600000     1.685863     19.073360     L1
Au     10.220000     9.272245     19.073360     L1
Au     18.980000     9.272245     19.073360     L1
Au     10.220000     4.214657     19.073360     L1
Au     14.600000     11.801040     19.073360     L1
Au     4.380000     4.214657     19.073360     L1
Au     13.140000     4.214657     19.073360     L1
Au     8.760000     11.801040     19.073360     L1
Au     17.520000     11.801040     19.073360     L1
Au     7.300000     4.214657     19.073360     L1
Au     16.059999     4.214657     19.073360     L1
Au     11.680000     11.801040     19.073360     L1
Au     20.440001     11.801040     19.073360     L1
Au     11.680000     6.743451     19.073360     L1
Au     5.840000     6.743451     19.073360     L1
Au     14.600000     6.743451     19.073360     L1
Au     8.760000     6.743451     19.073360     L1
Au     17.520000     6.743451     19.073360     L1
Au    0.0000000000    0.0000000000    21.2229166169    L0
Au    8.7600000000    0.0000000000    21.2346197084    L0
Au    4.3800000000    7.5863820000    21.269381729    L0
Au    13.1400000000    7.5863820000    21.3062726717    L0
Au    2.9200000000    0.0000000000    21.2078534376    L0
Au    11.6800000000    0.0000000000    21.2350878144    L0
Au    7.3000000000    7.5863820000    21.2969927883    L0
Au    16.0599990000    7.5863820000    21.2712190786    L0
Au    5.8400000000    0.0000000000    21.2222893223    L0
Au    10.2200000000    7.5863820000    21.2740826266    L0
Au    1.4600000000    2.5287940000    21.2410276663    L0
Au    10.2200000000    2.5287940000    21.249623955    L0
Au    5.8400000000    10.1151760000    21.2488897955    L0
Au    14.6000000000    10.1151760000    21.2498285701    L0
Au    4.3800000000    2.5287940000    21.2402182056    L0
Au    13.1400000000    2.5287940000    21.2605197403    L0
Au    8.7600000000    10.1151760000    21.2290631926    L0
Au    17.5200000000    10.1151760000    21.2416337428    L0
Au    7.3000000000    2.5287940000    21.2587082078    L0
Au    11.6800000000    10.1151760000    21.2305361089    L0
Au    2.9200000000    5.0575880000    21.2462604418    L0
Au    11.6800000000    5.0575880000    21.3091145683    L0
Au    5.8400000000    5.0575880000    21.3161848981    L0
Au    14.6000000000    5.0575880000    21.3197334045    L0
Au    8.7600000000    5.0575880000    21.3033398913    L0
Au    1.4600000000    0.8429310000    23.8493552502    L0
Au    10.2200000000    0.8429310000    23.8624227048    L0
Au    5.8400000000    8.4293140000    23.8908553472    L0
Au    14.6000000000    8.4293140000    23.894868491    L0
Au    4.3800000000    0.8429310000    23.8489538557    L0
Au    13.1400000000    0.8429310000    23.8643090917    L0
Au    8.7600000000    8.4293140000    23.877815009    L0
Au    17.5200000000    8.4293140000    23.8860738266    L0
Au    7.3000000000    0.8429310000    23.8628229469    L0
Au    11.6800000000    8.4293140000    23.8846385439    L0
Au    2.9200000000    3.3717260000    23.8703482058    L0
Au    11.6800000000    3.3717260000    23.8737000114    L0
Au    7.3000000000    10.9581080000    23.8522886018    L0
Au    16.0599990000    10.9581080000    23.86473961    L0
Au    5.8400000000    3.3717260000    23.887786526    L0
Au    14.6000000000    3.3717260000    23.8900512576    L0
Au    10.2200000000    10.9581080000    23.8086921694    L0
Au    18.9800000000    10.9581080000    23.8650748284    L0
Au    8.7600000000    3.3717260000    23.871199980900002    L0
Au    13.1400000000    10.9581080000    23.8529230552    L0
Au    4.3800000000    5.9005200000    23.8931199805    L0
Au    13.1400000000    5.9005200000    24.0044787476    L0
Au    7.3000000000    5.9005200000    23.9933025647    L0
Au    16.0599990000    5.9005200000    23.8955564019    L0
Au    10.2200000000    5.9005200000    23.9266156672    L0
Au    8.7600000000    1.6858630000    26.490018551    L0
Au    13.1400000000    9.2722450000    26.4793372265    L0
Au    2.9200000000    1.6858630000    26.4815274829    L0
Au    11.6800000000    1.6858630000    26.4918869436    L0
Au    7.3000000000    9.2722450000    26.4747271765    L0
Au    16.0599990000    9.2722450000    26.5082035676    L0
Au    5.8400000000    1.6858630000    26.492802938700002    L0
Au    14.6000000000    1.6858630000    26.4940674914    L0
Au    10.2200000000    9.2722450000    26.3499385141    L0
Au    18.9800000000    9.2722450000    26.5076257138    L0
Au    10.2200000000    4.2146570000    26.4034261048    L0
Au    14.6000000000    11.8010400000    26.4847198393    L0
Au    4.3800000000    4.2146570000    26.5118849216    L0
Au    13.1400000000    4.2146570000    26.5354690381    L0
Au    8.7600000000    11.8010400000    26.4597674662    L0
Au    17.5200000000    11.8010400000    26.4859150231    L0
Au    7.3000000000    4.2146570000    26.5288941366    L0
Au    16.0599990000    4.2146570000    26.5132581532    L0
Au    11.6800000000    11.8010400000    26.4600862362    L0
Au    20.4400010000    11.8010400000    26.4861733575    L0
Au    11.6800000000    6.7434510000    26.660455507    L0
Au    5.8400000000    6.7434510000    26.5372572827    L0
Au    14.6000000000    6.7434510000    26.5433405297    L0
Au    8.7600000000    6.7434510000    26.6206252404    L0
Au    17.5200000000    6.7434510000    26.516450442500002    L0
C    9.258282161542546    5.808794747772968    37.91328724522435    S1
N    8.713519596490285    6.405223149027134    37.06759258469428    S1
H    9.75502958243836    5.247326847378729    38.695204803889744    S1
C    9.776373251425884    3.983657254847773    40.992456659300856    S
C    10.86486926623244    3.458525919300783    40.264252255937436    S
C    10.637219060642126    2.599386150886956    39.18288438180462    S
C    9.333356749099098    2.240340864976547    38.78660193407676    S
C    8.468652153830588    3.6100449184921337    40.62775324814046    S
C    8.260408181234054    2.7533237432447835    39.538830802207315    S
C    9.207679372499067    3.2652639472235876    31.35502953654626    S
H    11.496071476121852    2.2098472167742687    38.623795833613016    S
S    10.137066788185368    5.119287565667726    42.31945912364518    S
H    7.608272776295434    3.9973536569771952    41.183791014244825    S
H    7.233583116396451    2.4916926194118396    39.258605720060544    S
H    11.889952191723726    3.72409494285306    40.54392878790555    S
C    8.196415112080953    4.183722935249504    31.019020497792226    S
C    8.456781466021537    5.295355124096389    30.20980199333056    S
C    9.754331203783833    5.515909103688936    29.71308264982974    S
C    10.77003021453505    4.588139806994282    30.01211923149778    S
C    10.49230502392427    3.48294276003261    30.822941705527334    S
H    7.648955370270353    5.997465945107189    29.97670065531437    S
H    7.183308417753362    4.037708866433127    31.41238362661254    S
H    11.781668139297924    4.737195034692383    29.620105129594123    S
H    11.29912332779178    2.779172626678049    31.05998369540141    S
S    10.1896642657    6.9401248065    28.729184104999998    S
C    9.102500505647473    1.4436872338522346    37.52083449225229    S
C    8.956567161951476    2.1666789233249872    32.36521956222144    S
C    9.19081928195999    2.7015042714123494    33.79354947694274    S
C    9.218155680894382    2.362750610943924    36.28595304464632    S
H    9.841388694194555    0.6236742531433124    37.44155686539275    S
H    8.102849698559739    0.9715740399390693    37.54486848642616    S
H    7.9203200577645525    1.788993716101916    32.27620525922421    S
H    9.627418877499016    1.3077128108553104    32.174448545312025    S
C    8.99027515937245    1.6874162384518483    34.92752893855035    S
H    10.223232332453563    2.828883741124188    36.29090470426053    S
H    8.504465457716199    3.2011694219935367    36.39881038933877    S
H    9.687815617655211    0.835134614794065    34.803213677580786    S
H    7.967985609327928    1.2621585111179727    34.882586957646126    S
H    10.21913280701001    3.1086828192199194    33.849667128510895    S
H    8.521598313066475    3.568093247141609    33.95807694243326    S
Au    8.7600020000    1.6858630000    44.6879267454    R0
Au    13.1400000000    9.2722460000    44.740117702999996    R0
Au    2.9200000000    1.6858630000    44.7311319493    R0
Au    11.6800000000    1.6858630000    44.6858232797    R0
Au    7.3000000000    9.2722460000    44.7354911818    R0
Au    16.0599990000    9.2722460000    44.7340524535    R0
Au    5.8400010000    1.6858630000    44.713021901000005    R0
Au    14.6000000000    1.6858630000    44.7159334048    R0
Au    10.2200000000    9.2722460000    44.747614721299996    R0
Au    18.9800000000    9.2722460000    44.7330235637    R0
Au    10.2200010000    4.2146570000    44.5908232699    R0
Au    14.6000000000    11.8010400000    44.7166432577    R0
Au    4.3800000000    4.2146570000    44.722378446    R0
Au    13.1400000000    4.2146570000    44.7073350047    R0
Au    8.7600000000    11.8010400000    44.7366019097    R0
Au    17.5200000000    11.8010400000    44.7026249706    R0
Au    7.3000000000    4.2146570000    44.7068248327    R0
Au    16.0599990000    4.2146570000    44.724039355100004    R0
Au    11.6800000000    11.8010400000    44.7363682293    R0
Au    20.4400010000    11.8010400000    44.7187677972    R0
Au    11.6800000000    6.7434510000    44.809952794    R0
Au    5.8400000000    6.7434510000    44.732840294599995    R0
Au    14.6000000000    6.7434510000    44.7366826504    R0
Au    8.7600000000    6.7434510000    44.7768728399    R0
Au    17.5200000000    6.7434510000    44.7353033685    R0
Au    1.4600000000    0.8429310000    47.3559218936    R0
Au    10.2200000000    0.8429310000    47.3040996391    R0
Au    5.8400010000    8.4293140000    47.358581978800004    R0
Au    14.6000000000    8.4293140000    47.362162405700005    R0
Au    4.3800000000    0.8429310000    47.3538572948    R0
Au    13.1400010000    0.8429310000    47.3267322408    R0
Au    8.7600000000    8.4293140000    47.3585855173    R0
Au    17.5200000000    8.4293140000    47.361365835499996    R0
Au    7.3000010000    0.8429310000    47.323209790199996    R0
Au    11.6800000000    8.4293140000    47.3748968819    R0
Au    2.9200000000    3.3717260000    47.3554895172    R0
Au    11.6800010000    3.3717260000    47.2512026458    R0
Au    7.3000000000    10.9581090000    47.3596012349    R0
Au    16.0599980000    10.9581090000    47.3425960054    R0
Au    5.8400000000    3.3717260000    47.3290824963    R0
Au    14.6000000000    3.3717260000    47.3328685865    R0
Au    10.2200000000    10.9581090000    47.3650323044    R0
Au    18.9800000000    10.9581090000    47.343959883    R0
Au    8.7600000000    3.3717260000    47.2565716756    R0
Au    13.1399990000    10.9581090000    47.3589830559    R0
Au    4.3800000000    5.9005200000    47.3547746936    R0
Au    13.1400000000    5.9005200000    47.3529588623    R0
Au    7.3000000000    5.9005200000    47.3399782411    R0
Au    16.0599990000    5.9005200000    47.356739236500005    R0
Au    10.2200000000    5.9005200000    47.3376425349    R0
Au    0.0000000000    0.0000000000    49.978377885    R0
Au    8.7600000000    0.0000000000    49.9368176098    R0
Au    4.3800000000    7.5863820000    49.9844829535    R0
Au    13.1399990000    7.5863820000    49.9812974521    R0
Au    2.9200000000    0.0000000000    49.9806992926    R0
Au    11.6800000000    0.0000000000    49.9390781642    R0
Au    7.3000000000    7.5863820000    49.9699603106    R0
Au    16.0599990000    7.5863820000    49.9874696791    R0
Au    5.8400000000    0.0000000000    49.973637830200005    R0
Au    10.2200000000    7.5863820000    49.969089616299996    R0
Au    1.4600000000    2.5287940000    49.976693876599995    R0
Au    10.2200000000    2.5287940000    49.8968221182    R0
Au    5.8400000000    10.1151760000    49.985590817399995    R0
Au    14.6000000000    10.1151760000    49.9853697998    R0
Au    4.3800000000    2.5287940000    49.9725101887    R0
Au    13.1400000000    2.5287940000    49.913802737699996    R0
Au    8.7600000000    10.1151760000    49.9840259667    R0
Au    17.5200000000    10.1151760000    49.9776762101    R0
Au    7.3000000000    2.5287940000    49.912260524000004    R0
Au    11.6800000000    10.1151760000    49.9910317507    R0
Au    2.9200000000    5.0575880000    49.9890392924    R0
Au    11.6800000000    5.0575880000    49.944991313100005    R0
Au    5.8400000000    5.0575880000    49.953995537400004    R0
Au    14.6000000000    5.0575880000    49.9605630513    R0
Au    8.7600000000    5.0575880000    49.9397741666    R0
Au    8.760002    1.685863   52.00457237260001 R1
Au   13.140000    9.272246   52.00457237260001 R1
Au    2.920000    1.685863   52.00457237260001 R1
Au   11.680000    1.685863   52.00457237260001 R1
Au    7.300000    9.272246   52.00457237260001 R1
Au   16.059999    9.272246   52.00457237260001 R1
Au    5.840001    1.685863   52.00457237260001 R1
Au   14.600000    1.685863   52.00457237260001 R1
Au   10.220000    9.272246   52.00457237260001 R1
Au   18.980000    9.272246   52.00457237260001 R1
Au   10.220001    4.214657   52.00457237260001 R1
Au   14.600000   11.801040   52.00457237260001 R1
Au    4.380000    4.214657   52.00457237260001 R1
Au   13.140000    4.214657   52.00457237260001 R1
Au    8.760000   11.801040   52.00457237260001 R1
Au   17.520000   11.801040   52.00457237260001 R1
Au    7.300000    4.214657   52.00457237260001 R1
Au   16.059999    4.214657   52.00457237260001 R1
Au   11.680000   11.801040   52.00457237260001 R1
Au   20.440001   11.801040   52.00457237260001 R1
Au   11.680000    6.743451   52.00457237260001 R1
Au    5.840000    6.743451   52.00457237260001 R1
Au   14.600000    6.743451   52.00457237260001 R1
Au    8.760000    6.743451   52.00457237260001 R1
Au   17.520000    6.743451   52.00457237260001 R1
Au    1.460000    0.842931   54.38874237260001 R1
Au   10.220000    0.842931   54.38874237260001 R1
Au    5.840001    8.429314   54.38874237260001 R1
Au   14.600000    8.429314   54.38874237260001 R1
Au    4.380000    0.842931   54.38874237260001 R1
Au   13.140001    0.842931   54.38874237260001 R1
Au    8.760000    8.429314   54.38874237260001 R1
Au   17.520000    8.429314   54.38874237260001 R1
Au    7.300001    0.842931   54.38874237260001 R1
Au   11.680000    8.429314   54.38874237260001 R1
Au    2.920000    3.371726   54.38874237260001 R1
Au   11.680001    3.371726   54.38874237260001 R1
Au    7.300000   10.958109   54.38874237260001 R1
Au   16.059998   10.958109   54.38874237260001 R1
Au    5.840000    3.371726   54.38874237260001 R1
Au   14.600000    3.371726   54.38874237260001 R1
Au   10.220000   10.958109   54.38874237260001 R1
Au   18.980000   10.958109   54.38874237260001 R1
Au    8.760000    3.371726   54.38874237260001 R1
Au   13.139999   10.958109   54.38874237260001 R1
Au    4.380000    5.900520   54.38874237260001 R1
Au   13.140000    5.900520   54.38874237260001 R1
Au    7.300000    5.900520   54.38874237260001 R1
Au   16.059999    5.900520   54.38874237260001 R1
Au   10.220000    5.900520   54.38874237260001 R1
Au    0.000000    0.000000   56.77291237260001 R1
Au    8.760000    0.000000   56.77291237260001 R1
Au    4.380000    7.586382   56.77291237260001 R1
Au   13.139999    7.586382   56.77291237260001 R1
Au    2.920000    0.000000   56.77291237260001 R1
Au   11.680000    0.000000   56.77291237260001 R1
Au    7.300000    7.586382   56.77291237260001 R1
Au   16.059999    7.586382   56.77291237260001 R1
Au    5.840000    0.000000   56.77291237260001 R1
Au   10.220000    7.586382   56.77291237260001 R1
Au    1.460000    2.528794   56.77291237260001 R1
Au   10.220000    2.528794   56.77291237260001 R1
Au    5.840000   10.115176   56.77291237260001 R1
Au   14.600000   10.115176   56.77291237260001 R1
Au    4.380000    2.528794   56.77291237260001 R1
Au   13.140000    2.528794   56.77291237260001 R1
Au    8.760000   10.115176   56.77291237260001 R1
Au   17.520000   10.115176   56.77291237260001 R1
Au    7.300000    2.528794   56.77291237260001 R1
Au   11.680000   10.115176   56.77291237260001 R1
Au    2.920000    5.057588   56.77291237260001 R1
Au   11.680000    5.057588   56.77291237260001 R1
Au    5.840000    5.057588   56.77291237260001 R1
Au   14.600000    5.057588   56.77291237260001 R1
Au    8.760000    5.057588   56.77291237260001 R1
Au    8.760002    1.685863   59.15708237260001 R2
Au   13.140000    9.272246   59.15708237260001 R2
Au    2.920000    1.685863   59.15708237260001 R2
Au   11.680000    1.685863   59.15708237260001 R2
Au    7.300000    9.272246   59.15708237260001 R2
Au   16.059999    9.272246   59.15708237260001 R2
Au    5.840001    1.685863   59.15708237260001 R2
Au   14.600000    1.685863   59.15708237260001 R2
Au   10.220000    9.272246   59.15708237260001 R2
Au   18.980000    9.272246   59.15708237260001 R2
Au   10.220001    4.214657   59.15708237260001 R2
Au   14.600000   11.801040   59.15708237260001 R2
Au    4.380000    4.214657   59.15708237260001 R2
Au   13.140000    4.214657   59.15708237260001 R2
Au    8.760000   11.801040   59.15708237260001 R2
Au   17.520000   11.801040   59.15708237260001 R2
Au    7.300000    4.214657   59.15708237260001 R2
Au   16.059999    4.214657   59.15708237260001 R2
Au   11.680000   11.801040   59.15708237260001 R2
Au   20.440001   11.801040   59.15708237260001 R2
Au   11.680000    6.743451   59.15708237260001 R2
Au    5.840000    6.743451   59.15708237260001 R2
Au   14.600000    6.743451   59.15708237260001 R2
Au    8.760000    6.743451   59.15708237260001 R2
Au   17.520000    6.743451   59.15708237260001 R2
Au    1.460000    0.842931   61.541252372600006 R2
Au   10.220000    0.842931   61.541252372600006 R2
Au    5.840001    8.429314   61.541252372600006 R2
Au   14.600000    8.429314   61.541252372600006 R2
Au    4.380000    0.842931   61.541252372600006 R2
Au   13.140001    0.842931   61.541252372600006 R2
Au    8.760000    8.429314   61.541252372600006 R2
Au   17.520000    8.429314   61.541252372600006 R2
Au    7.300001    0.842931   61.541252372600006 R2
Au   11.680000    8.429314   61.541252372600006 R2
Au    2.920000    3.371726   61.541252372600006 R2
Au   11.680001    3.371726   61.541252372600006 R2
Au    7.300000   10.958109   61.541252372600006 R2
Au   16.059998   10.958109   61.541252372600006 R2
Au    5.840000    3.371726   61.541252372600006 R2
Au   14.600000    3.371726   61.541252372600006 R2
Au   10.220000   10.958109   61.541252372600006 R2
Au   18.980000   10.958109   61.541252372600006 R2
Au    8.760000    3.371726   61.541252372600006 R2
Au   13.139999   10.958109   61.541252372600006 R2
Au    4.380000    5.900520   61.541252372600006 R2
Au   13.140000    5.900520   61.541252372600006 R2
Au    7.300000    5.900520   61.541252372600006 R2
Au   16.059999    5.900520   61.541252372600006 R2
Au   10.220000    5.900520   61.541252372600006 R2
Au    0.000000    0.000000   63.92542237260001 R2
Au    8.760000    0.000000   63.92542237260001 R2
Au    4.380000    7.586382   63.92542237260001 R2
Au   13.139999    7.586382   63.92542237260001 R2
Au    2.920000    0.000000   63.92542237260001 R2
Au   11.680000    0.000000   63.92542237260001 R2
Au    7.300000    7.586382   63.92542237260001 R2
Au   16.059999    7.586382   63.92542237260001 R2
Au    5.840000    0.000000   63.92542237260001 R2
Au   10.220000    7.586382   63.92542237260001 R2
Au    1.460000    2.528794   63.92542237260001 R2
Au   10.220000    2.528794   63.92542237260001 R2
Au    5.840000   10.115176   63.92542237260001 R2
Au   14.600000   10.115176   63.92542237260001 R2
Au    4.380000    2.528794   63.92542237260001 R2
Au   13.140000    2.528794   63.92542237260001 R2
Au    8.760000   10.115176   63.92542237260001 R2
Au   17.520000   10.115176   63.92542237260001 R2
Au    7.300000    2.528794   63.92542237260001 R2
Au   11.680000   10.115176   63.92542237260001 R2
Au    2.920000    5.057588   63.92542237260001 R2
Au   11.680000    5.057588   63.92542237260001 R2
Au    5.840000    5.057588   63.92542237260001 R2
Au   14.600000    5.057588   63.92542237260001 R2
Au    8.760000    5.057588   63.92542237260001 R2
Au    8.760002    1.685863   66.30959237260001 R3
Au   13.140000    9.272246   66.30959237260001 R3
Au    2.920000    1.685863   66.30959237260001 R3
Au   11.680000    1.685863   66.30959237260001 R3
Au    7.300000    9.272246   66.30959237260001 R3
Au   16.059999    9.272246   66.30959237260001 R3
Au    5.840001    1.685863   66.30959237260001 R3
Au   14.600000    1.685863   66.30959237260001 R3
Au   10.220000    9.272246   66.30959237260001 R3
Au   18.980000    9.272246   66.30959237260001 R3
Au   10.220001    4.214657   66.30959237260001 R3
Au   14.600000   11.801040   66.30959237260001 R3
Au    4.380000    4.214657   66.30959237260001 R3
Au   13.140000    4.214657   66.30959237260001 R3
Au    8.760000   11.801040   66.30959237260001 R3
Au   17.520000   11.801040   66.30959237260001 R3
Au    7.300000    4.214657   66.30959237260001 R3
Au   16.059999    4.214657   66.30959237260001 R3
Au   11.680000   11.801040   66.30959237260001 R3
Au   20.440001   11.801040   66.30959237260001 R3
Au   11.680000    6.743451   66.30959237260001 R3
Au    5.840000    6.743451   66.30959237260001 R3
Au   14.600000    6.743451   66.30959237260001 R3
Au    8.760000    6.743451   66.30959237260001 R3
Au   17.520000    6.743451   66.30959237260001 R3
Au    1.460000    0.842931   68.6937623726 R3
Au   10.220000    0.842931   68.6937623726 R3
Au    5.840001    8.429314   68.6937623726 R3
Au   14.600000    8.429314   68.6937623726 R3
Au    4.380000    0.842931   68.6937623726 R3
Au   13.140001    0.842931   68.6937623726 R3
Au    8.760000    8.429314   68.6937623726 R3
Au   17.520000    8.429314   68.6937623726 R3
Au    7.300001    0.842931   68.6937623726 R3
Au   11.680000    8.429314   68.6937623726 R3
Au    2.920000    3.371726   68.6937623726 R3
Au   11.680001    3.371726   68.6937623726 R3
Au    7.300000   10.958109   68.6937623726 R3
Au   16.059998   10.958109   68.6937623726 R3
Au    5.840000    3.371726   68.6937623726 R3
Au   14.600000    3.371726   68.6937623726 R3
Au   10.220000   10.958109   68.6937623726 R3
Au   18.980000   10.958109   68.6937623726 R3
Au    8.760000    3.371726   68.6937623726 R3
Au   13.139999   10.958109   68.6937623726 R3
Au    4.380000    5.900520   68.6937623726 R3
Au   13.140000    5.900520   68.6937623726 R3
Au    7.300000    5.900520   68.6937623726 R3
Au   16.059999    5.900520   68.6937623726 R3
Au   10.220000    5.900520   68.6937623726 R3
Au    0.000000    0.000000   71.0779323726 R3
Au    8.760000    0.000000   71.0779323726 R3
Au    4.380000    7.586382   71.0779323726 R3
Au   13.139999    7.586382   71.0779323726 R3
Au    2.920000    0.000000   71.0779323726 R3
Au   11.680000    0.000000   71.0779323726 R3
Au    7.300000    7.586382   71.0779323726 R3
Au   16.059999    7.586382   71.0779323726 R3
Au    5.840000    0.000000   71.0779323726 R3
Au   10.220000    7.586382   71.0779323726 R3
Au    1.460000    2.528794   71.0779323726 R3
Au   10.220000    2.528794   71.0779323726 R3
Au    5.840000   10.115176   71.0779323726 R3
Au   14.600000   10.115176   71.0779323726 R3
Au    4.380000    2.528794   71.0779323726 R3
Au   13.140000    2.528794   71.0779323726 R3
Au    8.760000   10.115176   71.0779323726 R3
Au   17.520000   10.115176   71.0779323726 R3
Au    7.300000    2.528794   71.0779323726 R3
Au   11.680000   10.115176   71.0779323726 R3
Au    2.920000    5.057588   71.0779323726 R3
Au   11.680000    5.057588   71.0779323726 R3
Au    5.840000    5.057588   71.0779323726 R3
Au   14.600000    5.057588   71.0779323726 R3
Au    8.760000    5.057588   71.0779323726 R3
