      37
 i =       81, E =      -108.6080799152
  C         0.7639946821       12.0370798559       -5.5527620395
  C        -0.1071262797       12.0322261727       -6.6455638218
  C        -0.0810723275       10.9749632304       -7.5583412693
  C         0.8119441674        9.9039529211       -7.4002791936
  C         1.6575059423       10.9763800292       -5.3807311505
  C         1.6790376268        9.9219384975       -6.2970279232
  C         3.9155030848        7.3603226447      -13.9041035454
  H        -0.7692527858       10.9763804757       -8.4070534190
  H         0.7430720430       12.8597034961       -4.8368666531
  H         2.3373800600       10.9676243702       -4.5274142116
  H         2.3771390072        9.0939921473       -6.1522509876
  H        -0.8128001144       12.8525241127       -6.7853679159
  C         5.2667290464        6.9939125113      -13.8062390800
  C         6.1701716548        7.2921284587      -14.8292362618
  C         5.7359981724        7.9655460184      -15.9741906516
  C         4.3930092886        8.3351631418      -16.0870532133
  C         3.4941990324        8.0343406695      -15.0606399829
  H         7.2153172674        6.9937055673      -14.7341820826
  H         5.6132356806        6.4621238716      -12.9169222913
  H         4.0427824684        8.8561070032      -16.9795498720
  H         2.4446842118        8.3217523443      -15.1594313665
  H         6.4386832875        8.1963292307      -16.7758577026
  C         0.8694417547        8.7861437682       -8.4139475979
  C         2.9520472135        7.0782780774      -12.7759805867
  C         2.8874126187        8.2189007728      -11.7431755890
  C         1.8508130425        9.0700023177       -9.5664480999
  H        -0.1355714712        8.6152123600       -8.8325781841
  H         1.1642652144        7.8493941587       -7.9139419952
  H         3.2450488731        6.1471139793      -12.2645286909
  H         1.9434299364        6.9070098916      -13.1856679733
  C         1.9143399360        7.9380227733      -10.5952191420
  H         1.5587289131       10.0094600484      -10.0645663847
  H         2.8551482213        9.2490393831       -9.1478571253
  H         0.9051365034        7.7595388267      -11.0059769786
  H         2.2049896987        7.0002860818      -10.0900153698
  H         2.5989114988        9.1518172919      -12.2554173992
  H         3.8980818449        8.3957178573      -11.3391291400
