      37
 i =      208, E =      -127.7459570258
C   9.040599636431715   9.819050939925567   -0.9231280894108167
C   10.185076358119067   9.17464581478985   -1.4855789806382074
C   10.06848571441485   8.36067433495848   -2.5991019925398797
C   8.818170053127552   8.13691933594878   -3.21426751674166
C   7.779419106921063   9.585354301312766   -1.553192660361146
C   7.68074852625832   8.76805584330671   -2.6655738904028166
C   8.80439528297465   8.136628489259078   -10.81797498152177
H   10.956973872483772   7.875080454981323   -3.0090629240859066
S   9.173308432453304   10.823537007612165   0.44779500031930874
H   6.896997614723013   10.066196279211354   -1.1308007201971466
H   6.705252192724782   8.60025561953753   -3.127757797530898
H   11.152584795641598   9.33917241297045   -1.011138156712513
C   7.6580460741319545   8.684464292554324   -11.432350765970867
C   7.761005362080615   9.500023077176618   -12.546103320171127
C   9.035188030525799   9.817280341711678   -13.109353516776531
C   10.189309289041358   9.256013228452364   -12.480762886459335
C   10.068233516728156   8.442054913118453   -11.368076129009328
H   6.871619728079423   9.915707888655277   -13.019787367634034
H   6.672787926587242   8.452904477532517   -11.02134152760669
H   11.167404591758924   9.484899369466165   -12.904138967286794
H   10.964421423895658   8.021123798243341   -10.906556957821305
S   9.173308432453304   10.823537007612163   -14.478397236318457
C   8.70698986497232   7.297056034860747   -4.45367250497997
C   8.689071310739873   7.298348899032212   -9.577828267982984
C   8.809555924388244   8.145903798778672   -8.289888620814429
C   8.81667048819344   8.145242070705535   -5.742133123392028
H   9.499211595146122   6.532148585278744   -4.460648563758498
H   7.742480857917071   6.764876977494118   -4.459280790956393
H   7.721954085356124   6.771689754686859   -9.569887364356276
H   9.477361935731402   6.528894135444851   -9.57199605466317
C   8.698331197841863   7.304914342481878   -7.015888507683874
H   9.77832279594959   8.683511098439084   -5.736351945836278
H   8.032257415872564   8.919258266997867   -5.730203909006203
H   9.482265082384977   6.528254622589865   -7.018688559241287
H   7.7347669198987505   6.767058151019117   -7.013043876439907
H   9.772267675335826   8.68220535882178   -8.301710218068854
H   8.026678929351242   8.921535050729947   -8.29634143348715
