222
 i =       78, E =     -7630.7679613509
Au    0.000000    0.000000    0.000000    L0
Au    8.760000    0.000000    0.000000    L0
Au    4.380000    7.586382    0.000000    L0
Au    13.140000    7.586382    0.000000    L0
Au    2.920000    0.000000    0.000000    L0
Au    11.680000    0.000000    0.000000    L0
Au    7.300000    7.586382    0.000000    L0
Au    16.059999    7.586382    0.000000    L0
Au    5.840000    0.000000    0.000000    L0
Au    14.600000    0.000000    0.000000    L0
Au    10.220000    7.586382    0.000000    L0
Au    18.980000    7.586382    0.000000    L0
Au    1.460000    2.528794    0.000000    L0
Au    10.220000    2.528794    0.000000    L0
Au    5.840000    10.115176    0.000000    L0
Au    14.600000    10.115176    0.000000    L0
Au    4.380000    2.528794    0.000000    L0
Au    13.140000    2.528794    0.000000    L0
Au    8.760000    10.115176    0.000000    L0
Au    17.520000    10.115176    0.000000    L0
Au    7.300000    2.528794    0.000000    L0
Au    16.059999    2.528794    0.000000    L0
Au    11.680000    10.115176    0.000000    L0
Au    20.440001    10.115176    0.000000    L0
Au    2.920000    5.057588    0.000000    L0
Au    11.680000    5.057588    0.000000    L0
Au    5.840000    5.057588    0.000000    L0
Au    14.600000    5.057588    0.000000    L0
Au    8.760000    5.057588    0.000000    L0
Au    17.520000    5.057588    0.000000    L0
Au    1.460000    0.842931    2.384170    L0
Au    10.220000    0.842931    2.384170    L0
Au    5.840000    8.429314    2.384170    L0
Au    14.600000    8.429314    2.384170    L0
Au    4.380000    0.842931    2.384170    L0
Au    13.140000    0.842931    2.384170    L0
Au    8.760000    8.429314    2.384170    L0
Au    17.520000    8.429314    2.384170    L0
Au    7.300000    0.842931    2.384170    L0
Au    16.059999    0.842931    2.384170    L0
Au    11.680000    8.429314    2.384170    L0
Au    20.440001    8.429314    2.384170    L0
Au    2.920000    3.371726    2.384170    L0
Au    11.680000    3.371726    2.384170    L0
Au    7.300000    10.958108    2.384170    L0
Au    16.059999    10.958108    2.384170    L0
Au    5.840000    3.371726    2.384170    L0
Au    14.600000    3.371726    2.384170    L0
Au    10.220000    10.958108    2.384170    L0
Au    18.980000    10.958108    2.384170    L0
Au    8.760000    3.371726    2.384170    L0
Au    17.520000    3.371726    2.384170    L0
Au    13.140000    10.958108    2.384170    L0
Au    21.900000    10.958108    2.384170    L0
Au    4.380000    5.900520    2.384170    L0
Au    13.140000    5.900520    2.384170    L0
Au    7.300000    5.900520    2.384170    L0
Au    16.059999    5.900520    2.384170    L0
Au    10.220000    5.900520    2.384170    L0
Au    18.980000    5.900520    2.384170    L0
Au    0.000000    1.685863    4.768340    L0
Au    8.760000    1.685863    4.768340    L0
Au    4.380000    9.272245    4.768340    L0
Au    13.140000    9.272245    4.768340    L0
Au    2.920000    1.685863    4.768340    L0
Au    11.680000    1.685863    4.768340    L0
Au    7.300000    9.272245    4.768340    L0
Au    16.059999    9.272245    4.768340    L0
Au    5.840000    1.685863    4.768340    L0
Au    14.600000    1.685863    4.768340    L0
Au    10.220000    9.272245    4.768340    L0
Au    18.980000    9.272245    4.768340    L0
Au    1.460000    4.214657    4.768340    L0
Au    10.220000    4.214657    4.768340    L0
Au    5.840000    11.801040    4.768340    L0
Au    14.600000    11.801040    4.768340    L0
Au    4.380000    4.214657    4.768340    L0
Au    13.140000    4.214657    4.768340    L0
Au    8.760000    11.801040    4.768340    L0
Au    17.520000    11.801040    4.768340    L0
Au    7.300000    4.214657    4.768340    L0
Au    16.059999    4.214657    4.768340    L0
Au    11.680000    11.801040    4.768340    L0
Au    20.440001    11.801040    4.768340    L0
Au    2.920000    6.743451    4.768340    L0
Au    11.680000    6.743451    4.768340    L0
Au    5.840000    6.743451    4.768340    L0
Au    14.600000    6.743451    4.768340    L0
Au    8.760000    6.743451    4.768340    L0
Au    17.520000    6.743451    4.768340    L0
C    7.842076999999999    8.467133    19.440149
C    9.233386999999999    8.585046    19.293774
C    9.817324    8.433621    18.037514
C    9.042887999999998    8.158360    16.890400
C    7.055209999999999    8.188710    18.304863
C    7.649358999999999    8.040514    17.058533
C    9.648322999999998    7.988894    15.550380
C    10.782768999999998    8.716677    15.147872
C    11.339208    8.548954    13.877883
C    10.779726    7.647533    12.964282
C    9.092837999999999    7.084952    14.621894
C    9.646982999999999    6.919004    13.356916
C    11.363071    7.401989    11.574109
C    10.549330999999999    8.010121    10.436248
C    10.425159999999998    7.304555    9.229875
C    9.690590999999998    7.817900    8.165087
C    9.069201999999999    9.073679    8.270821
C    9.920741    9.259271    10.544371
C    9.203282999999999    9.795084    9.475958
N    12.782867    7.793234    11.485160
H    11.350928    6.311017    11.413770
C    13.828619    7.101406    12.076581
C    14.959767999999999    7.834717    11.807613
N    14.647924999999999    8.960326    11.070630
C    13.335735999999999    8.907815    10.896663
H    9.857119999999998    8.789225    20.166243
H    10.90222    8.505939    17.950415
S    6.924873    8.701353    20.941174
H    5.973375999999998    8.104157    18.407803
H    7.014148999999999    7.857118    16.191555
H    8.233899999999998    6.477132    14.907533
H    11.228278999999999    9.441763    15.830297
H    12.226723    9.119598    13.601657
H    9.198379    6.201381    12.666558
H    9.985488    9.820509    11.477722
H    10.902390999999998    6.328381    9.121934
H    9.577592    7.233199    7.251024
S    7.994668999999999    9.757872    7.041616
H    8.724727999999999    10.769489    9.576829
H    15.982399999999998    7.611628    12.096911
H    13.663618999999999    6.178477    12.620491
H    12.738281999999998    9.622998    10.342815
Au    0.0000000000    0.0000000000    23.0678022631    R0
Au    8.7600000000    0.0000000000    23.0678022631    R0
Au    4.3800000000    7.5863820000    23.0678022631    R0
Au    13.1400000000    7.5863820000    23.0678022631    R0
Au    2.9200000000    0.0000000000    23.0678022631    R0
Au    11.6800000000    0.0000000000    23.0678022631    R0
Au    7.3000000000    7.5863820000    23.0678022631    R0
Au    16.0599990000    7.5863820000    23.0678022631    R0
Au    5.8400000000    0.0000000000    23.0678022631    R0
Au    14.6000000000    0.0000000000    23.0678022631    R0
Au    10.2200000000    7.5863820000    23.0678022631    R0
Au    18.9800000000    7.5863820000    23.0678022631    R0
Au    1.4600000000    2.5287940000    23.0678022631    R0
Au    10.2200000000    2.5287940000    23.0678022631    R0
Au    5.8400000000    10.1151760000    23.0678022631    R0
Au    14.6000000000    10.1151760000    23.0678022631    R0
Au    4.3800000000    2.5287940000    23.0678022631    R0
Au    13.1400000000    2.5287940000    23.0678022631    R0
Au    8.7600000000    10.1151760000    23.0678022631    R0
Au    17.5200000000    10.1151760000    23.0678022631    R0
Au    7.3000000000    2.5287940000    23.0678022631    R0
Au    16.0599990000    2.5287940000    23.0678022631    R0
Au    11.6800000000    10.1151760000    23.0678022631    R0
Au    20.4400010000    10.1151760000    23.0678022631    R0
Au    2.9200000000    5.0575880000    23.0678022631    R0
Au    11.6800000000    5.0575880000    23.0678022631    R0
Au    5.8400000000    5.0575880000    23.0678022631    R0
Au    14.6000000000    5.0575880000    23.0678022631    R0
Au    8.7600000000    5.0575880000    23.0678022631    R0
Au    17.5200000000    5.0575880000    23.0678022631    R0
Au    1.4600000000    0.8429310000    25.451972263099996    R0
Au    10.2200000000    0.8429310000    25.451972263099996    R0
Au    5.8400000000    8.4293140000    25.451972263099996    R0
Au    14.6000000000    8.4293140000    25.451972263099996    R0
Au    4.3800000000    0.8429310000    25.451972263099996    R0
Au    13.1400000000    0.8429310000    25.451972263099996    R0
Au    8.7600000000    8.4293140000    25.451972263099996    R0
Au    17.5200000000    8.4293140000    25.451972263099996    R0
Au    7.3000000000    0.8429310000    25.451972263099996    R0
Au    16.0599990000    0.8429310000    25.451972263099996    R0
Au    11.6800000000    8.4293140000    25.451972263099996    R0
Au    20.4400010000    8.4293140000    25.451972263099996    R0
Au    2.9200000000    3.3717260000    25.451972263099996    R0
Au    11.6800000000    3.3717260000    25.451972263099996    R0
Au    7.3000000000    10.9581080000    25.451972263099996    R0
Au    16.0599990000    10.9581080000    25.451972263099996    R0
Au    5.8400000000    3.3717260000    25.451972263099996    R0
Au    14.6000000000    3.3717260000    25.451972263099996    R0
Au    10.2200000000    10.9581080000    25.451972263099996    R0
Au    18.9800000000    10.9581080000    25.451972263099996    R0
Au    8.7600000000    3.3717260000    25.451972263099996    R0
Au    17.5200000000    3.3717260000    25.451972263099996    R0
Au    13.1400000000    10.9581080000    25.451972263099996    R0
Au    21.9000000000    10.9581080000    25.451972263099996    R0
Au    4.3800000000    5.9005200000    25.451972263099996    R0
Au    13.1400000000    5.9005200000    25.451972263099996    R0
Au    7.3000000000    5.9005200000    25.451972263099996    R0
Au    16.0599990000    5.9005200000    25.451972263099996    R0
Au    10.2200000000    5.9005200000    25.451972263099996    R0
Au    18.9800000000    5.9005200000    25.451972263099996    R0
Au    0.0000000000    1.6858630000    27.836142263099998    R0
Au    8.7600000000    1.6858630000    27.836142263099998    R0
Au    4.3800000000    9.2722450000    27.836142263099998    R0
Au    13.1400000000    9.2722450000    27.836142263099998    R0
Au    2.9200000000    1.6858630000    27.836142263099998    R0
Au    11.6800000000    1.6858630000    27.836142263099998    R0
Au    7.3000000000    9.2722450000    27.836142263099998    R0
Au    16.0599990000    9.2722450000    27.836142263099998    R0
Au    5.8400000000    1.6858630000    27.836142263099998    R0
Au    14.6000000000    1.6858630000    27.836142263099998    R0
Au    10.2200000000    9.2722450000    27.836142263099998    R0
Au    18.9800000000    9.2722450000    27.836142263099998    R0
Au    1.4600000000    4.2146570000    27.836142263099998    R0
Au    10.2200000000    4.2146570000    27.836142263099998    R0
Au    5.8400000000    11.8010400000    27.836142263099998    R0
Au    14.6000000000    11.8010400000    27.836142263099998    R0
Au    4.3800000000    4.2146570000    27.836142263099998    R0
Au    13.1400000000    4.2146570000    27.836142263099998    R0
Au    8.7600000000    11.8010400000    27.836142263099998    R0
Au    17.5200000000    11.8010400000    27.836142263099998    R0
Au    7.3000000000    4.2146570000    27.836142263099998    R0
Au    16.0599990000    4.2146570000    27.836142263099998    R0
Au    11.6800000000    11.8010400000    27.836142263099998    R0
Au    20.4400010000    11.8010400000    27.836142263099998    R0
Au    2.9200000000    6.7434510000    27.836142263099998    R0
Au    11.6800000000    6.7434510000    27.836142263099998    R0
Au    5.8400000000    6.7434510000    27.836142263099998    R0
Au    14.6000000000    6.7434510000    27.836142263099998    R0
Au    8.7600000000    6.7434510000    27.836142263099998    R0
Au    17.5200000000    6.7434510000    27.836142263099998    R0
