75
	Energy:    2590.6202781
C         -0.56437        1.13137        3.36031
C         -1.55307        0.17344        3.18650
C         -0.93696       -1.07009        3.23956
C          0.43028       -0.89541        3.45876
C          0.66320        0.47796        3.53340
C          1.86652        1.04071        3.05502
C          2.97936        0.20148        2.55263
C          2.78895       -1.32967        2.57545
C          1.39918       -1.80490        2.95345
C          0.94158       -2.80701        2.09458
C         -0.44274       -2.93592        1.81354
C         -1.37980       -2.10756        2.41202
C         -2.43175       -1.89442        1.52228
C         -3.06083       -0.62823        1.45901
C         -2.62514        0.40254        2.29290
C         -2.68747        1.59916        1.57707
C         -3.15716        1.30732        0.29291
C         -3.38799       -0.07072        0.22063
C         -3.09127       -0.77724       -0.96913
C         -2.47056       -2.02991       -0.90064
C         -2.13712       -2.59090        0.35386
C         -0.90507       -3.23507        0.53567
C          0.00781       -3.33080       -0.53074
C          1.38520       -3.20134       -0.30551
C          1.95664       -3.07943        1.07368
C          3.10729       -2.10483        1.28511
C          3.45062       -1.21023        0.07340
C          3.56579        0.18413        0.12568
C          3.34675        0.89508        1.31237
C          2.66672        2.12337        1.23018
C          2.32380        2.69620       -0.01833
C          2.61049        2.01115       -1.18704
C          3.21316        0.74162       -1.10361
C          2.78509       -0.27846       -1.92125
C          2.86294       -1.45795       -1.18247
C          1.87016       -2.44485       -1.37212
C          0.83410       -2.22004       -2.28841
C         -0.32352       -2.76716       -1.76140
C         -1.56677       -2.11957       -1.95636
C         -1.62926       -0.92902       -2.68510
C         -2.56968       -0.09628       -2.07301
C         -2.33783        1.29977       -2.00185
C         -2.62899        1.99684       -0.82528
C         -1.64139        2.97080       -0.64420
C         -0.74139        2.87763       -1.70960
C         -1.17143        1.84439       -2.54882
C         -0.22147        0.99883       -3.17125
C         -0.44904       -0.37856       -3.23420
C          0.77337       -1.02493       -3.03547
C          1.74879       -0.05661       -2.85414
C          1.14259        1.19734       -2.94348
C          1.57719        2.24235       -2.09839
C          0.64291        3.07686       -1.48434
C          1.10825        3.35828       -0.19728
C          0.20151        3.44974        0.87611
C         -1.16616        3.26267        0.65780
C         -1.68424        2.58051        1.75957
C         -0.63154        2.34482        2.65040
C          0.52911        2.87628        2.10499
C          1.76876        2.21203        2.29001
N          3.92557       -2.29208        2.51155
C          6.27392       -2.58830        1.75165
C          7.60264       -2.14312        1.64671
C          5.93425       -3.84602        1.21090
C          6.90521       -4.63017        0.58037
C          8.57012       -2.93015        1.01614
C          8.22267       -4.17371        0.48165
H          7.88917       -1.18037        2.05296
H          9.58842       -2.56953        0.94336
H          6.63029       -5.59292        0.16783
C          5.26989       -1.68523        2.43568
H          5.61744       -1.50096        3.47437
H          5.29570       -0.71392        1.91158
S          9.46155       -5.17940       -0.32842
H          4.92565       -4.23167        1.26763
