75
	Energy:    2590.6202781
C   -2.474471646255128   0.5076590761246299   2.551365752730824
C   -2.253413209662689   -0.8612164984077911   2.603137560308313
C   -2.874378488000939   -1.4218985435921285   1.494619845562081
C   -3.493930844585301   -0.4122719692020057   0.7565710546708356
C   -3.2440031574766754   0.7917814128332622   1.4151753496203645
C   -3.0720786307773533   1.9945335643617281   0.6959095931625309
C   -3.2529645190313543   2.0624615289456356   -0.7730293632471792
C   -3.65024000448808   0.7644335083614842   -1.5068498381819637
C   -3.642580881558375   -0.4904777152604282   -0.6551883065488266
C   -3.0075070502663794   -1.5532225861440685   -1.3021306975069562
C   -2.313617169149651   -2.5386287111405177   -0.5541769998736767
C   -2.282607415490272   -2.5023532400067134   0.8315222925314272
C   -1.0620985123360316   -3.0122054606655353   1.272059986844299
C   -0.42096714047927764   -2.442422571298329   2.397795248087117
C   -1.0178598311605087   -1.3716924655563227   3.064834420526811
C   -0.011425532399893967   -0.49245455611137007   3.467609473221362
C   1.2127425658285576   -1.0173678921115192   3.0424922608329066
C   0.9586329786402961   -2.2236701575696847   2.3808546780509814
C   1.712600606042486   -2.5763710819770367   1.2363560973827001
C   1.0736293518350977   -3.1411283416236353   0.12643768278048156
C   -0.323537782001739   -3.3585326954643424   0.14437119212091065
C   -1.0997298376557332   -3.064444358168214   -0.9856708469670272
C   -0.49294103741450873   -2.5534544174806846   -2.1477556320915765
C   -1.1344790463821979   -1.5720631435323433   -2.9158648737153348
C   -2.527903749369809   -1.11252540930966   -2.614595151158671
C   -2.8339096246414375   0.37285220960165677   -2.750819087882696
C   -1.6132876504521767   1.2798487521381197   -3.022600325191703
C   -1.2964707554530688   2.4246290053571204   -2.2814239873455975
C   -2.0733793982925155   2.8304716353777675   -1.189010924196272
C   -1.4086513768596731   3.338519198064557   -0.05856116738706729
C   -0.010111843464760833   3.558948000343654   -0.06052892177833952
C   0.7347704676966208   3.21631635514268   -1.1763791003084827
C   0.08385471328241645   2.6270574751677933   -2.276815726255715
C   0.6666991187672209   1.5694177038179986   -2.935627394302221
C   -0.3606391384741372   0.7132752372889352   -3.3288822139978222
C   -0.132415784435562   -0.6804652297849586   -3.298020068705771
C   1.1096393767034138   -1.1711790315022712   -2.873701597163258
C   0.8829930854007355   -2.332663500118475   -2.1548489094016583
C   1.6757929449204612   -2.631296287664843   -1.0211207174844823
C   2.692043410370494   -1.756823317520981   -0.6275367923041425
C   2.7133453036353807   -1.7193349058669687   0.7691166007877122
C   2.973310821218389   -0.4985456815929968   1.4398366393763569
C   2.2264458947350305   -0.14954339565491978   2.5691673621493645
C   2.0039217128081788   1.2309408117394276   2.5305908201505467
C   2.61502062308924   1.7356500054226276   1.3792504879442289
C   3.2139924795671795   0.666640368628861   0.704520453642042
C   3.194894403627572   0.6254131689415902   -0.7106651884563191
C   2.9315182033191887   -0.5783024223158697   -1.369949476131084
C   2.142941374487789   -0.29207649493264676   -2.4869970585660615
C   1.9227898327923139   1.076276592592402   -2.520336138483951
C   2.5756952875444634   1.6513078793125   -1.429050582569314
C   1.973309574359978   2.732278085576384   -0.7480696475050239
C   1.9912439935512734   2.775057546091734   0.646273113571422
C   0.762983843749041   3.289181739229186   1.0697294797280328
C   0.14660173819814615   2.7788434005945564   2.2283218719766142
C   0.7619245948050919   1.759424483912281   2.959990187777841
C   -0.2385032546857564   0.9037140357669365   3.4231856452231946
C   -1.4667692175829536   1.3967253720649258   2.969745790700137
C   -1.2292910570220748   2.5481212019895416   2.2315574757771586
C   -2.0167942796369656   2.831652004935825   1.0862882744311175
N   -4.2661909248382095   0.7529708755732862   -2.8643086089258096
C   -4.489071821314878   2.0290997309054637   -4.986044047540705
C   -4.727829478384006   3.2218382867382065   -5.689651887904129
C   -4.252676116771464   0.8455268514146407   -5.716056499220282
C   -4.254069333966398   0.8649163371990869   -7.114214119729093
C   -4.728812428839975   3.2367873227667383   -7.087088060446623
C   -4.491203987266471   2.059109450264214   -7.800852442656145
H   -4.911138672978891   4.14481287658536   -5.152491100454549
H   -4.912983621579404   4.16580998477551   -7.611756020245076
H   -4.069178544212642   -0.050624305598737415   -7.662172647128367
C   -4.489520262889515   2.07988021162608   -3.4731230818660483
H   -5.4834377669480325   2.4439599276423705   -3.136675007103266
H   -3.7499067504596466   2.8424894571956565   -3.1728081255236207
S   -4.4895202628895134   2.0798802116260795   -9.590269994806754
H   -4.0647955235554125   -0.09651089900481301   -5.219585014764791
