    256
 i =      441, E =     -6420.4007602550
Au    0.0000000000    0.0000000000    0.0000000000    L0
Au    8.7600000000    0.0000000000    0.0000000000    L0
Au    4.3800000000    7.5863820000    0.0000000000    L0
Au    13.1400000000    7.5863820000    0.0000000000    L0
Au    2.9200000000    0.0000000000    0.0000000000    L0
Au    11.6800000000    0.0000000000    0.0000000000    L0
Au    7.3000000000    7.5863820000    0.0000000000    L0
Au    16.0599990000    7.5863820000    0.0000000000    L0
Au    5.8400000000    0.0000000000    0.0000000000    L0
Au    14.6000000000    0.0000000000    0.0000000000    L0
Au    10.2200000000    7.5863820000    0.0000000000    L0
Au    18.9800000000    7.5863820000    0.0000000000    L0
Au    1.4600000000    2.5287940000    0.0000000000    L0
Au    10.2200000000    2.5287940000    0.0000000000    L0
Au    5.8400000000    10.1151760000    0.0000000000    L0
Au    14.6000000000    10.1151760000    0.0000000000    L0
Au    4.3800000000    2.5287940000    0.0000000000    L0
Au    13.1400000000    2.5287940000    0.0000000000    L0
Au    8.7600000000    10.1151760000    0.0000000000    L0
Au    17.5200000000    10.1151760000    0.0000000000    L0
Au    7.3000000000    2.5287940000    0.0000000000    L0
Au    16.0599990000    2.5287940000    0.0000000000    L0
Au    11.6800000000    10.1151760000    0.0000000000    L0
Au    20.4400010000    10.1151760000    0.0000000000    L0
Au    2.9200000000    5.0575880000    0.0000000000    L0
Au    11.6800000000    5.0575880000    0.0000000000    L0
Au    5.8400000000    5.0575880000    0.0000000000    L0
Au    14.6000000000    5.0575880000    0.0000000000    L0
Au    8.7600000000    5.0575880000    0.0000000000    L0
Au    17.5200000000    5.0575880000    0.0000000000    L0
Au    1.4600000000    0.8429310000    2.3841700000    L0
Au    10.2200000000    0.8429310000    2.3841700000    L0
Au    5.8400000000    8.4293140000    2.3841700000    L0
Au    14.6000000000    8.4293140000    2.3841700000    L0
Au    4.3800000000    0.8429310000    2.3841700000    L0
Au    13.1400000000    0.8429310000    2.3841700000    L0
Au    8.7600000000    8.4293140000    2.3841700000    L0
Au    17.5200000000    8.4293140000    2.3841700000    L0
Au    7.3000000000    0.8429310000    2.3841700000    L0
Au    16.0599990000    0.8429310000    2.3841700000    L0
Au    11.6800000000    8.4293140000    2.3841700000    L0
Au    20.4400010000    8.4293140000    2.3841700000    L0
Au    2.9200000000    3.3717260000    2.3841700000    L0
Au    11.6800000000    3.3717260000    2.3841700000    L0
Au    7.3000000000    10.9581080000    2.3841700000    L0
Au    16.0599990000    10.9581080000    2.3841700000    L0
Au    5.8400000000    3.3717260000    2.3841700000    L0
Au    14.6000000000    3.3717260000    2.3841700000    L0
Au    10.2200000000    10.9581080000    2.3841700000    L0
Au    18.9800000000    10.9581080000    2.3841700000    L0
Au    8.7600000000    3.3717260000    2.3841700000    L0
Au    17.5200000000    3.3717260000    2.3841700000    L0
Au    13.1400000000    10.9581080000    2.3841700000    L0
Au    21.9000000000    10.9581080000    2.3841700000    L0
Au    4.3800000000    5.9005200000    2.3841700000    L0
Au    13.1400000000    5.9005200000    2.3841700000    L0
Au    7.3000000000    5.9005200000    2.3841700000    L0
Au    16.0599990000    5.9005200000    2.3841700000    L0
Au    10.2200000000    5.9005200000    2.3841700000    L0
Au    18.9800000000    5.9005200000    2.3841700000    L0
Au    0.0000000000    1.6858630000    4.7683400000    L0
Au    8.7600000000    1.6858630000    4.7683400000    L0
Au    4.3800000000    9.2722450000    4.7683400000    L0
Au    13.1400000000    9.2722450000    4.7683400000    L0
Au    2.9200000000    1.6858630000    4.7683400000    L0
Au    11.6800000000    1.6858630000    4.7683400000    L0
Au    7.3000000000    9.2722450000    4.7683400000    L0
Au    16.0599990000    9.2722450000    4.7683400000    L0
Au    5.8400000000    1.6858630000    4.7683400000    L0
Au    14.6000000000    1.6858630000    4.7683400000    L0
Au    10.2200000000    9.2722450000    4.7683400000    L0
Au    18.9800000000    9.2722450000    4.7683400000    L0
Au    1.4600000000    4.2146570000    4.7683400000    L0
Au    10.2200000000    4.2146570000    4.7683400000    L0
Au    5.8400000000    11.8010400000    4.7683400000    L0
Au    14.6000000000    11.8010400000    4.7683400000    L0
Au    4.3800000000    4.2146570000    4.7683400000    L0
Au    13.1400000000    4.2146570000    4.7683400000    L0
Au    8.7600000000    11.8010400000    4.7683400000    L0
Au    17.5200000000    11.8010400000    4.7683400000    L0
Au    7.3000000000    4.2146570000    4.7683400000    L0
Au    16.0599990000    4.2146570000    4.7683400000    L0
Au    11.6800000000    11.8010400000    4.7683400000    L0
Au    20.4400010000    11.8010400000    4.7683400000    L0
Au    2.9200000000    6.7434510000    4.7683400000    L0
Au    11.6800000000    6.7434510000    4.7683400000    L0
Au    5.8400000000    6.7434510000    4.7683400000    L0
Au    14.6000000000    6.7434510000    4.7683400000    L0
Au    8.7600000000    6.7434510000    4.7683400000    L0
Au    17.5200000000    6.7434510000    4.7683400000    L0
C    9.2098901669    9.1926759719    18.7052685360    S
C    8.7032845343    7.9106619163    19.1530192778    S
C    8.3130067148    7.1599574845    17.9744537354    S
C    8.5644984601    7.9685860074    16.8075207735    S
C    9.1041141154    9.2353455863    17.2598873220    S
C    10.1236461428    9.8298525460    16.5106217128    S
C    10.5088960677    9.2745064687    15.2422033551    S
C    9.7388461690    8.2480244928    14.6887489696    S
C    8.9664418770    7.4051718633    15.5830296060    S
C    9.2592765013    5.9636879324    15.5132288746    S
C    9.0128875281    5.1883281952    16.6732420647    S
C    8.5237898978    5.7869262669    17.9050134693    S
C    9.1174718511    5.0969306457    19.0371070871    S
C    9.5092011461    5.8168810879    20.1754496268    S
C    9.3023140396    7.2530767797    20.2329165577    S
C    10.4299561831    7.8505751071    20.9145940868    S
C    11.3328907225    6.7705166404    21.3606567383    S
C    10.7605646187    5.5122974842    20.8334192881    S
C    11.5872911364    4.5126574424    20.3188834350    S
C    11.1788021685    3.7581162212    19.1485501471    S
C    9.9649572246    4.0502234508    18.5166156283    S
C    9.8901062237    4.0981980793    17.0649628472    S
C    11.0252612968    3.8177207251    16.3115604293    S
C    11.2990049897    4.6001017768    15.1327736702    S
C    10.4226785423    5.6057338241    14.6840075576    S
C    10.9980434121    6.6886342818    13.9065882494    S
C    12.3418802122    7.0125963214    14.1214570752    S
C    12.8190183832    8.3202112162    14.6334968717    S
C    11.9864221057    9.3462836335    15.1443825925    S
C    12.4326028458    10.0855366136    16.3291572008    S
C    13.6595426236    9.8244231484    16.9488518129    S
C    14.5075595129    8.7822219208    16.4288889168    S
C    14.0895029783    8.0479050024    15.3140410700    S
C    14.3416668719    6.6216976041    15.2905907932    S
C    13.2357342099    5.9986886297    14.6067357974    S
C    12.7360434064    4.7661088682    15.0385185786    S
C    13.3460683349    4.1071073990    16.1754074740    S
C    12.2854151211    3.5021212237    16.9610334026    S
C    12.3638221786    3.4820848217    18.3544003221    S
C    13.5055716634    4.0771785605    19.0259180628    S
C    13.0278949897    4.7161903797    20.2365503042    S
C    13.5919109705    5.9231225725    20.6623485001    S
C    12.7464106293    6.9748287942    21.1999921977    S
C    13.2623685911    8.2476045245    20.7287532057    S
C    14.4365752471    7.9839287585    19.9147114395    S
C    14.6430132933    6.5475757153    19.8792580994    S
C    15.1005470435    5.9368042929    18.7075332503    S
C    14.5231358012    4.6761891448    18.2712777807    S
C    14.4421540854    4.6931829362    16.8230594007    S
C    14.9558898092    5.9733352735    16.3651378489    S
C    15.3658342123    6.7382548821    17.5269379111    S
C    15.1497990757    8.1180756864    17.5531506246    S
C    14.6847118463    8.7538854743    18.7723918573    S
C    13.7666500721    9.8144065586    18.3993379021    S
C    12.6457555694    10.0762349515    19.1921032311    S
C    12.3813834109    9.2719162654    20.3695582995    S
C    10.9415432798    9.0704675651    20.4633762210    S
C    10.3215576606    9.7557383955    19.3447527147    S
C    11.3764133858    10.3702700915    18.5570586411    S
C    11.2848628498    10.3817077968    17.1627892677    S
N    10.0979193572    7.6868855545    13.4327384382    S
C    9.8892939973    8.2211110850    10.9928701362    S
C    10.5919579249    8.4822052473    9.8048631197    S
C    8.5794082359    7.7319164534    10.8949728230    S
C    7.9795396283    7.5404068759    9.6523365401    S
C    10.0009755764    8.2985160531    8.5533793176    S
C    8.6777017886    7.8387727608    8.4632869157    S
H    11.6197381853    8.8485814173    9.8542637234    S
H    10.5655745276    8.5159119315    7.6450520761    S
H    6.9567152471    7.1676775375    9.5939242719    S
C    10.5117390947    8.5815563217    12.3318146434    S
H    10.1875296879    9.5967916726    12.6095076073    S
H    11.6066697176    8.6253018002    12.2311900513    S
S    7.7498743673    7.6279892612    6.9581490940    S
H    8.0221533309    7.4984299325    11.8029566376    S
Au    11.6800000000    6.7434500000    25.36066    R0
Au    0.0000000000    0.0000000000    27.669692257799998    R0
Au    8.7600000000    0.0000000000    27.669692257799998    R0
Au    4.3800000000    7.5863820000    27.669692257799998    R0
Au    13.1400000000    7.5863820000    27.669692257799998    R0
Au    2.9200000000    0.0000000000    27.669692257799998    R0
Au    11.6800000000    0.0000000000    27.669692257799998    R0
Au    7.3000000000    7.5863820000    27.669692257799998    R0
Au    16.0599990000    7.5863820000    27.669692257799998    R0
Au    5.8400000000    0.0000000000    27.669692257799998    R0
Au    14.6000000000    0.0000000000    27.669692257799998    R0
Au    10.2200000000    7.5863820000    27.669692257799998    R0
Au    18.9800000000    7.5863820000    27.669692257799998    R0
Au    1.4600000000    2.5287940000    27.669692257799998    R0
Au    10.2200000000    2.5287940000    27.669692257799998    R0
Au    5.8400000000    10.1151760000    27.669692257799998    R0
Au    14.6000000000    10.1151760000    27.669692257799998    R0
Au    4.3800000000    2.5287940000    27.669692257799998    R0
Au    13.1400000000    2.5287940000    27.669692257799998    R0
Au    8.7600000000    10.1151760000    27.669692257799998    R0
Au    17.5200000000    10.1151760000    27.669692257799998    R0
Au    7.3000000000    2.5287940000    27.669692257799998    R0
Au    16.0599990000    2.5287940000    27.669692257799998    R0
Au    11.6800000000    10.1151760000    27.669692257799998    R0
Au    20.4400010000    10.1151760000    27.669692257799998    R0
Au    2.9200000000    5.0575880000    27.669692257799998    R0
Au    11.6800000000    5.0575880000    27.669692257799998    R0
Au    5.8400000000    5.0575880000    27.669692257799998    R0
Au    14.6000000000    5.0575880000    27.669692257799998    R0
Au    8.7600000000    5.0575880000    27.669692257799998    R0
Au    17.5200000000    5.0575880000    27.669692257799998    R0
Au    1.4600000000    0.8429310000    30.0538622578    R0
Au    10.2200000000    0.8429310000    30.0538622578    R0
Au    5.8400000000    8.4293140000    30.0538622578    R0
Au    14.6000000000    8.4293140000    30.0538622578    R0
Au    4.3800000000    0.8429310000    30.0538622578    R0
Au    13.1400000000    0.8429310000    30.0538622578    R0
Au    8.7600000000    8.4293140000    30.0538622578    R0
Au    17.5200000000    8.4293140000    30.0538622578    R0
Au    7.3000000000    0.8429310000    30.0538622578    R0
Au    16.0599990000    0.8429310000    30.0538622578    R0
Au    11.6800000000    8.4293140000    30.0538622578    R0
Au    20.4400010000    8.4293140000    30.0538622578    R0
Au    2.9200000000    3.3717260000    30.0538622578    R0
Au    11.6800000000    3.3717260000    30.0538622578    R0
Au    7.3000000000    10.9581080000    30.0538622578    R0
Au    16.0599990000    10.9581080000    30.0538622578    R0
Au    5.8400000000    3.3717260000    30.0538622578    R0
Au    14.6000000000    3.3717260000    30.0538622578    R0
Au    10.2200000000    10.9581080000    30.0538622578    R0
Au    18.9800000000    10.9581080000    30.0538622578    R0
Au    8.7600000000    3.3717260000    30.0538622578    R0
Au    17.5200000000    3.3717260000    30.0538622578    R0
Au    13.1400000000    10.9581080000    30.0538622578    R0
Au    21.9000000000    10.9581080000    30.0538622578    R0
Au    4.3800000000    5.9005200000    30.0538622578    R0
Au    13.1400000000    5.9005200000    30.0538622578    R0
Au    7.3000000000    5.9005200000    30.0538622578    R0
Au    16.0599990000    5.9005200000    30.0538622578    R0
Au    10.2200000000    5.9005200000    30.0538622578    R0
Au    18.9800000000    5.9005200000    30.0538622578    R0
Au    0.0000000000    1.6858630000    32.4380322578    R0
Au    8.7600000000    1.6858630000    32.4380322578    R0
Au    4.3800000000    9.2722450000    32.4380322578    R0
Au    13.1400000000    9.2722450000    32.4380322578    R0
Au    2.9200000000    1.6858630000    32.4380322578    R0
Au    11.6800000000    1.6858630000    32.4380322578    R0
Au    7.3000000000    9.2722450000    32.4380322578    R0
Au    16.0599990000    9.2722450000    32.4380322578    R0
Au    5.8400000000    1.6858630000    32.4380322578    R0
Au    14.6000000000    1.6858630000    32.4380322578    R0
Au    10.2200000000    9.2722450000    32.4380322578    R0
Au    18.9800000000    9.2722450000    32.4380322578    R0
Au    1.4600000000    4.2146570000    32.4380322578    R0
Au    10.2200000000    4.2146570000    32.4380322578    R0
Au    5.8400000000    11.8010400000    32.4380322578    R0
Au    14.6000000000    11.8010400000    32.4380322578    R0
Au    4.3800000000    4.2146570000    32.4380322578    R0
Au    13.1400000000    4.2146570000    32.4380322578    R0
Au    8.7600000000    11.8010400000    32.4380322578    R0
Au    17.5200000000    11.8010400000    32.4380322578    R0
Au    7.3000000000    4.2146570000    32.4380322578    R0
Au    16.0599990000    4.2146570000    32.4380322578    R0
Au    11.6800000000    11.8010400000    32.4380322578    R0
Au    20.4400010000    11.8010400000    32.4380322578    R0
Au    2.9200000000    6.7434510000    32.4380322578    R0
Au    11.6800000000    6.7434510000    32.4380322578    R0
Au    5.8400000000    6.7434510000    32.4380322578    R0
Au    14.6000000000    6.7434510000    32.4380322578    R0
Au    8.7600000000    6.7434510000    32.4380322578    R0
Au    17.5200000000    6.7434510000    32.4380322578    R0
