     111
 i =      138, E =     -1600.8272961127
 Au         1.6649000000        0.0000000000        0.0000000000
 Au         6.6598000000        0.0000000000        0.0000000000
 Au         4.1623000000        1.4419000000        0.0000000000
 Au         9.1572000000        1.4419000000        0.0000000000
 Au         6.6598000000        2.8838000000        0.0000000000
 Au        11.6546000000        2.8838000000        0.0000000000
 Au         4.1623000000        4.3256000000        0.0000000000
 Au         9.1572000000        4.3256000000        0.0000000000
 Au         6.6598000000        5.7675000000        0.0000000000
 Au        11.6546000000        5.7675000000        0.0000000000
 Au         9.1572000000        7.2094000000        0.0000000000
 Au        14.1520000000        7.2094000000        0.0000000000
 Au         3.3299000000        0.0000000000        2.3546000000
 Au         8.3247000000        0.0000000000        2.3546000000
 Au         5.8273000000        1.4419000000        2.3546000000
 Au        10.8221000000        1.4419000000        2.3546000000
 Au         8.3247000000        2.8838000000        2.3546000000
 Au        13.3195000000        2.8838000000        2.3546000000
 Au         5.8273000000        4.3256000000        2.3546000000
 Au        10.8221000000        4.3256000000        2.3546000000
 Au         8.3247000000        5.7675000000        2.3546000000
 Au        13.3195000000        5.7675000000        2.3546000000
 Au        10.8221000000        7.2094000000        2.3546000000
 Au        15.8169000000        7.2094000000        2.3546000000
 Au         0.0000000000        0.0000000000        4.7091000000
 Au         4.9948000000        0.0000000000        4.7091000000
 Au         2.4974000000        1.4419000000        4.7091000000
 Au         7.4922000000        1.4419000000        4.7091000000
 Au         4.9948000000        2.8838000000        4.7091000000
 Au         9.9896000000        2.8838000000        4.7091000000
 Au         2.4974000000        4.3256000000        4.7091000000
 Au         7.4922000000        4.3256000000        4.7091000000
 Au         4.9948000000        5.7675000000        4.7091000000
 Au         9.9896000000        5.7675000000        4.7091000000
 Au         7.4922000000        7.2094000000        4.7091000000
 Au        12.4870000000        7.2094000000        4.7091000000
  H         6.2286323973        6.4395026615        9.2729542435
  C         7.1398337386        6.3368921857        9.8647384674
  C         7.1627039578        6.8229703711       11.1651044747
  H         6.2769045383        7.3000721696       11.5826145064
  C         8.3336410596        6.7171954685       11.9404621117
  N         8.3747806014        7.3069176847       13.2154091572
  C         9.4738618693        6.1140258241       11.3790321834
  H        10.3900257928        6.0288170116       11.9610867809
  C         9.4335568054        5.6294078735       10.0766045727
  H        10.3278995302        5.1693393506        9.6528071888
  C         8.2687016946        5.7226657741        9.2952367696
  C         8.2505332461        5.2447343481        7.8832870196
  H         8.9158392246        4.3903469810        7.7140155341
  H         7.2410091355        4.9957440939        7.5342658391
  S         8.8982986785        6.6624304068        6.8415021142
  C         4.5461273112        7.7632640643       17.1771888407
  C         5.1878536043        8.8414710432       17.8985228641
  C         6.1436579974        9.4543287091       16.9980850591
  C         6.0866523571        8.7777779732       15.7296716597
  C         5.0858114640        7.7360209189       15.8334775356
  C         5.3286748963        6.5060170198       15.2135330857
  C         6.4780033559        6.3400445481       14.3711196919
  C         7.2249601584        7.4707486437       14.0264746650
  C         7.2263378728        8.6080284629       14.9240435042
  C         8.5434829533        9.0149631021       15.4431616711
  C         8.5734176569        9.6706216822       16.6990984548
  C         7.3678389309        9.9093635906       17.4711585126
  C         7.6739485399        9.7953369187       18.8876018141
  C         6.7568728103        9.1992747316       19.7617408698
  C         5.4897297166        8.7076322081       19.2549019997
  C         5.1744865735        7.4729321069       19.9491039301
  C         6.2430886111        7.2026448285       20.8922689694
  C         7.2207026230        8.2730874080       20.7803403234
  C         8.5848910506        7.9888602068       20.8962236617
  C         9.5344490437        8.6210527459       19.9982645519
  C         9.0808934971        9.4979542568       19.0070615336
  C         9.6325815168        9.4351504611       17.6640566960
  C        10.6370128461        8.5196158496       17.3796977060
  C        10.6211983175        7.8317430907       16.1146152028
  C         9.6557679843        8.1001634667       15.1273194192
  C         9.3512578591        7.0244844863       14.2026085525
  C         9.5234727225        5.7038749173       14.6283507064
  C         8.4337009325        4.7100887587       14.7485332931
  C         7.0512652127        4.9998780340       14.6318583189
  C         6.1202253979        4.3424721709       15.5564218770
  C         6.5553423899        3.4378218732       16.5288851010
  C         7.9580502810        3.1413524021       16.6481318335
  C         8.8666136703        3.7693294394       15.7900741012
  C        10.1286576215        4.2164992722       16.3384307300
  C        10.4892484684        5.4308056563       15.6536118134
  C        11.0924958723        6.4836549667       16.3460870602
  C        11.3747037004        6.3388250657       17.7596518110
  C        11.1102658967        7.6093668128       18.4025063621
  C        10.5696267743        7.6514558167       19.6875490536
  C        10.2550786804        6.4155096801       20.3828215739
  C         9.0273748424        6.6226440361       21.1283296916
  C         8.0859234570        5.5914088836       21.2278882128
  C         6.6688753856        5.8865437797       21.1069519247
  C         6.0432631824        4.7930833782       20.3845291412
  C         7.0743246156        3.8259753614       20.0503878945
  C         8.3348569423        4.3160535535       20.5793772588
  C         9.5153799137        4.1187423484       19.8563649133
  C        10.4954260341        5.1858495746       19.7567348173
  C        11.0623531831        5.1483097285       18.4223807856
  C        10.4283619286        4.0659979732       17.6945894539
  C         9.4753937365        3.4323096182       18.5794642236
  C         8.2643106662        2.9740764119       18.0607317365
  C         7.0426311931        3.1689307047       18.8140459718
  C         5.9828822172        3.4514280477       17.8661649177
  C         4.9822899886        4.3650456919       18.1966651162
  C         5.0156939765        5.0553433009       19.4727843840
  C         4.5738665385        6.4192924460       19.2504177123
  C         4.2623273645        6.5663165951       17.8417847297
  C         4.5194241367        5.2952557218       17.1909700242
  C         5.0652295754        5.2703227672       15.9068440557