     189
 i =        2, E =     -4007.4006044276
 Au         0.0000000000        0.0000000000        0.0000000000
 Au         8.7600000000        0.0000000000        0.0000000000
 Au         4.3800000000        7.5863825040        0.0000000000
 Au        13.1400000000        7.5863825040        0.0000000000
 Au         2.9200000000        0.0000000000        0.0000000000
 Au        11.6800000000        0.0000000000        0.0000000000
 Au         7.3000000000        7.5863825040        0.0000000000
 Au        16.0600000000        7.5863825040        0.0000000000
 Au         5.8400000000        0.0000000000        0.0000000000
 Au        14.6000000000        0.0000000000        0.0000000000
 Au        10.2200000000        7.5863825040        0.0000000000
 Au        18.9800000000        7.5863825040        0.0000000000
 Au         1.4600000000        2.5287941680        0.0000000000
 Au        10.2200000000        2.5287941680        0.0000000000
 Au         5.8400000000       10.1151766720        0.0000000000
 Au        14.6000000000       10.1151766720        0.0000000000
 Au         4.3800000000        2.5287941680        0.0000000000
 Au        13.1400000000        2.5287941680        0.0000000000
 Au         8.7600000000       10.1151766720        0.0000000000
 Au        17.5200000000       10.1151766720        0.0000000000
 Au         7.3000000000        2.5287941680        0.0000000000
 Au        16.0600000000        2.5287941680        0.0000000000
 Au        11.6800000000       10.1151766720        0.0000000000
 Au        20.4400000000       10.1151766720        0.0000000000
 Au         2.9200000000        5.0575883360        0.0000000000
 Au        11.6800000000        5.0575883360        0.0000000000
 Au         7.3000000000       12.6439708400        0.0000000000
 Au        16.0600000000       12.6439708400        0.0000000000
 Au         5.8400000000        5.0575883360        0.0000000000
 Au        14.6000000000        5.0575883360        0.0000000000
 Au        10.2200000000       12.6439708400        0.0000000000
 Au        18.9800000000       12.6439708400        0.0000000000
 Au         8.7600000000        5.0575883360        0.0000000000
 Au        17.5200000000        5.0575883360        0.0000000000
 Au        13.1400000000       12.6439708400        0.0000000000
 Au        21.9000000000       12.6439708400        0.0000000000
 Au         1.4600000000        0.8429312920        2.3841700720
 Au        10.2200000000        0.8429312920        2.3841700720
 Au         5.8400000000        8.4293137960        2.3841700720
 Au        14.6000000000        8.4293137960        2.3841700720
 Au         4.3800000000        0.8429312920        2.3841700720
 Au        13.1400000000        0.8429312920        2.3841700720
 Au         8.7600000000        8.4293137960        2.3841700720
 Au        17.5200000000        8.4293137960        2.3841700720
 Au         7.3000000000        0.8429312920        2.3841700720
 Au        16.0600000000        0.8429312920        2.3841700720
 Au        11.6800000000        8.4293137960        2.3841700720
 Au        20.4400000000        8.4293137960        2.3841700720
 Au         2.9200000000        3.3717254600        2.3841700720
 Au        11.6800000000        3.3717254600        2.3841700720
 Au         7.3000000000       10.9581079640        2.3841700720
 Au        16.0600000000       10.9581079640        2.3841700720
 Au         5.8400000000        3.3717254600        2.3841700720
 Au        14.6000000000        3.3717254600        2.3841700720
 Au        10.2200000000       10.9581079640        2.3841700720
 Au        18.9800000000       10.9581079640        2.3841700720
 Au         8.7600000000        3.3717254600        2.3841700720
 Au        17.5200000000        3.3717254600        2.3841700720
 Au        13.1400000000       10.9581079640        2.3841700720
 Au        21.9000000000       10.9581079640        2.3841700720
 Au         4.3800000000        5.9005196280        2.3841700720
 Au        13.1400000000        5.9005196280        2.3841700720
 Au         8.7600000000       13.4869021320        2.3841700720
 Au        17.5200000000       13.4869021320        2.3841700720
 Au         7.3000000000        5.9005196280        2.3841700720
 Au        16.0600000000        5.9005196280        2.3841700720
 Au        11.6800000000       13.4869021320        2.3841700720
 Au        20.4400000000       13.4869021320        2.3841700720
 Au        10.2200000000        5.9005196280        2.3841700720
 Au        18.9800000000        5.9005196280        2.3841700720
 Au        14.6000000000       13.4869021320        2.3841700720
 Au        23.3600000000       13.4869021320        2.3841700720
 Au         0.0000000000        1.6858628760        4.7683401440
 Au         8.7600000000        1.6858628760        4.7683401440
 Au         4.3800000000        9.2722453800        4.7683401440
 Au        13.1400000000        9.2722453800        4.7683401440
 Au         2.9200000000        1.6858628760        4.7683401440
 Au        11.6800000000        1.6858628760        4.7683401440
 Au         7.3000000000        9.2722453800        4.7683401440
 Au        16.0600000000        9.2722453800        4.7683401440
 Au         5.8400000000        1.6858628760        4.7683401440
 Au        14.6000000000        1.6858628760        4.7683401440
 Au        10.2200000000        9.2722453800        4.7683401440
 Au        18.9800000000        9.2722453800        4.7683401440
 Au         1.4600000000        4.2146570440        4.7683401440
 Au        10.2200000000        4.2146570440        4.7683401440
 Au         5.8400000000       11.8010395480        4.7683401440
 Au        14.6000000000       11.8010395480        4.7683401440
 Au         4.3800000000        4.2146570440        4.7683401440
 Au        13.1400000000        4.2146570440        4.7683401440
 Au         8.7600000000       11.8010395480        4.7683401440
 Au        17.5200000000       11.8010395480        4.7683401440
 Au         7.3000000000        4.2146570440        4.7683401440
 Au        16.0600000000        4.2146570440        4.7683401440
 Au        11.6800000000       11.8010395480        4.7683401440
 Au        20.4400000000       11.8010395480        4.7683401440
 Au         2.9200000000        6.7434512120        4.7683401440
 Au        11.6800000000        6.7434512120        4.7683401440
 Au         7.3000000000       14.3298337160        4.7683401440
 Au        16.0600000000       14.3298337160        4.7683401440
 Au         5.8400000000        6.7434512120        4.7683401440
 Au        14.6000000000        6.7434512120        4.7683401440
 Au        10.2200000000       14.3298337160        4.7683401440
 Au        18.9800000000       14.3298337160        4.7683401440
 Au         8.7600000000        6.7434512120        4.7683401440
 Au        17.5200000000        6.7434512120        4.7683401440
 Au        13.1400000000       14.3298337160        4.7683401440
 Au        21.9000000000       14.3298337160        4.7683401440
  H        11.7545009284        5.5387820348       11.0277845888
  C        11.3228252092        6.1534174892       10.2358656441
  C        11.2879204199        7.5468794996       10.3817991302
  C        10.7366564236        8.3160966973        9.3437302803
  H        10.7102404921        9.4029605440        9.4357999497
  C        10.1755083533        7.7089567271        8.2239105591
  H         9.7095534692        8.3157539398        7.4461562219
  C        10.1678148399        6.3072166603        8.1126645886
  C        10.7830925596        5.5323485076        9.1108790168
  H        10.7971815126        4.4459880189        9.0238240214
  C        11.7927073730        8.1920669440       11.6494242184
  N        10.7935020556        9.1009901002       12.2575857590
  H        12.6794705236        8.8099848221       11.4321684043
  H        12.1197381248        7.4030045648       12.3503617835
  C        11.1968180551        9.6731178153       13.5267962089
  C         9.4636587835        8.5677818189       12.4794499574
  C         8.1990619212        8.5120905140       20.2258097720
  C         7.7874411611        7.1969036288       20.6777916453
  C         8.9740348193        6.4625299338       21.0703992344
  C        10.1276596618        7.3241400959       20.8640688616
  C         9.6472842401        8.5898312740       20.3355685966
  C        10.3877367743        9.2626848177       19.3591921692
  C        11.6406290024        8.7095763765       18.8788397013
  C        12.1062349580        7.4920314570       19.3932268675
  C        11.3300030391        6.7859094216       20.3988891089
  C        11.4288336952        5.3612434689       20.1203975914
  C        10.3202758285        4.5326071956       20.3161753465
  C         9.0691212173        5.0920013613       20.8017852643
  C         7.9805832853        4.4054103706       20.1350017160
  C         6.8319294678        5.1115624650       19.7587499327
  C         6.7327271009        6.5318002990       20.0320441811
  C         6.0564385251        7.1610103677       18.9139880710
  C         5.7395576373        6.1253657056       17.9430852606
  C         6.2137918381        4.8554366974       18.4672526829
  C         6.7642785462        3.9058004612       17.6027014322
  C         7.9576074645        3.1711923133       17.9946033109
  C         8.5540694566        3.4183249660       19.2344433568
  C        10.0006455468        3.4998705703       19.3451884989
  C        10.7979634744        3.3402300944       18.2076713263
  C        11.9466139855        4.2058016922       18.0007020562
  C        12.2621353669        5.1944722357       18.9428697754
  C        12.6800261997        6.5090579532       18.4948611596
  C        12.7644903053        6.7846543061       17.1245800814
  C        12.2795477140        8.0459469276       16.5929695102
  C        11.7413274280        8.9920467259       17.4592549655
  C        10.5292691022        9.7123683961       17.0544277750
  C         9.9541761785        9.4824295006       15.8136505572
  C        10.6505070255        8.7151354836       14.6866938456
  C        11.6827147230        7.8049928977       15.2856636248
  C        11.7448775683        6.4272839946       15.0403908214
  C        12.4282508650        5.7666396236       16.1584024609
  C        12.0320012980        4.5037700324       16.5861336362
  C        10.9328151959        3.8091948291       15.9125027852
  C        10.1780861432        3.0897089535       16.9176067638
  C         8.7831499394        2.9992266624       16.8123052910
  C         8.1038131039        3.6217944937       15.6922469280
  C         6.8570744561        4.1808813206       16.1785720926
  C         6.4054168407        5.4077345356       15.6734623091
  C         5.8403741377        6.3948932753       16.5751692547
  C         6.2693941990        7.7091678104       16.1280262937
  C         7.0961817467        7.5460878437       14.9535802305
  C         7.1736592690        6.1107215812       14.6635292593
  C         8.3765277948        5.5834614296       14.2049378116
  C         8.8442344177        4.3108522872       14.7238414174
  C        10.2797721754        4.4093301061       14.8412501138
  C        10.6704061351        5.7474513652       14.3811462132
  C         9.5273494315        6.4447434215       13.9731110159
  C         9.4259868096        7.9396091934       13.9438250957
  C         8.1920499961        8.3679232837       14.7383102336
  C         8.5275930495        9.3639024281       15.7140010621
  C         7.7088721074        9.5556961116       16.8515041239
  C         6.5572362412        8.7110135700       17.0611124529
  C         6.4517532738        8.4310784866       18.4808462352
  C         7.5439770006        9.1201582961       19.1498699129
  C         8.3123733757        9.8178488834       18.1358783539
  C         9.7069158037        9.8767788024       18.2322635129
  H         9.1806761938        7.8417115975       11.7103032835
  H         8.7358464305        9.3936054276       12.4575861351
  S         9.1958039890        5.4466630025        6.9041063562
  H        10.7173463044       10.6553469907       13.6600727267
  H        12.2835765742        9.8087291045       13.5834448159
  Au    0.0000000000    0.0000000000    0.0000000000    R0
Au    8.76    0.0000000000    0.0000000000    R0
Au    4.38    7.586382504    0.0000000000    R0
Au    13.14    7.586382504    0.0000000000    R0
Au    2.9200000000    0.0000000000    0.0000000000    R0
Au    11.68    0.0000000000    0.0000000000    R0
Au    7.3    7.586382504    0.0000000000    R0
Au    16.06    7.586382504    0.0000000000    R0
Au    5.8400000000    0.0000000000    0.0000000000    R0
Au    14.6    0.0000000000    0.0000000000    R0
Au    10.219999999999999    7.586382504    0.0000000000    R0
Au    18.979999999999997    7.586382504    0.0000000000    R0
Au    1.4600000000    2.5287941680    0.0000000000    R0
Au    10.219999999999999    2.5287941680    0.0000000000    R0
Au    5.84    10.115176672    0.0000000000    R0
Au    14.6    10.115176672    0.0000000000    R0
Au    4.3800000000    2.5287941680    0.0000000000    R0
Au    13.14    2.5287941680    0.0000000000    R0
Au    8.76    10.115176672    0.0000000000    R0
Au    17.52    10.115176672    0.0000000000    R0
Au    7.3000000000    2.5287941680    0.0000000000    R0
Au    16.06    2.5287941680    0.0000000000    R0
Au    11.68    10.115176672    0.0000000000    R0
Au    20.439999999999998    10.115176672    0.0000000000    R0
Au    2.9200000000    5.0575883360    0.0000000000    R0
Au    11.68    5.0575883360    0.0000000000    R0
Au    7.3    12.643970840000001    0.0000000000    R0
Au    16.06    12.643970840000001    0.0000000000    R0
Au    5.8400000000    5.0575883360    0.0000000000    R0
Au    14.6    5.0575883360    0.0000000000    R0
Au    10.219999999999999    12.643970840000001    0.0000000000    R0
Au    18.979999999999997    12.643970840000001    0.0000000000    R0
Au    8.7600000000    5.0575883360    0.0000000000    R0
Au    17.52    5.0575883360    0.0000000000    R0
Au    13.14    12.643970840000001    0.0000000000    R0
Au    21.9    12.643970840000001    0.0000000000    R0
Au    1.4600000000    0.8429312920    2.3841700720    R0
Au    10.219999999999999    0.8429312920    2.3841700720    R0
Au    5.84    8.429313796    2.3841700720    R0
Au    14.6    8.429313796    2.3841700720    R0
Au    4.3800000000    0.8429312920    2.3841700720    R0
Au    13.14    0.8429312920    2.3841700720    R0
Au    8.76    8.429313796    2.3841700720    R0
Au    17.52    8.429313796    2.3841700720    R0
Au    7.3000000000    0.8429312920    2.3841700720    R0
Au    16.06    0.8429312920    2.3841700720    R0
Au    11.68    8.429313796    2.3841700720    R0
Au    20.439999999999998    8.429313796    2.3841700720    R0
Au    2.9200000000    3.3717254600    2.3841700720    R0
Au    11.68    3.3717254600    2.3841700720    R0
Au    7.3    10.958107964    2.3841700720    R0
Au    16.06    10.958107964    2.3841700720    R0
Au    5.8400000000    3.3717254600    2.3841700720    R0
Au    14.6    3.3717254600    2.3841700720    R0
Au    10.219999999999999    10.958107964    2.3841700720    R0
Au    18.979999999999997    10.958107964    2.3841700720    R0
Au    8.7600000000    3.3717254600    2.3841700720    R0
Au    17.52    3.3717254600    2.3841700720    R0
Au    13.14    10.958107964    2.3841700720    R0
Au    21.9    10.958107964    2.3841700720    R0
Au    4.3800000000    5.9005196280    2.3841700720    R0
Au    13.14    5.9005196280    2.3841700720    R0
Au    8.76    13.486902132    2.3841700720    R0
Au    17.52    13.486902132    2.3841700720    R0
Au    7.3000000000    5.9005196280    2.3841700720    R0
Au    16.06    5.9005196280    2.3841700720    R0
Au    11.68    13.486902132    2.3841700720    R0
Au    20.439999999999998    13.486902132    2.3841700720    R0
Au    10.2200000000    5.9005196280    2.3841700720    R0
Au    18.98    5.9005196280    2.3841700720    R0
Au    14.600000000000001    13.486902132    2.3841700720    R0
Au    23.36    13.486902132    2.3841700720    R0
Au    0.0000000000    1.6858628760    4.7683401440    R0
Au    8.76    1.6858628760    4.7683401440    R0
Au    4.38    9.272245380000001    4.7683401440    R0
Au    13.14    9.272245380000001    4.7683401440    R0
Au    2.9200000000    1.6858628760    4.7683401440    R0
Au    11.68    1.6858628760    4.7683401440    R0
Au    7.3    9.272245380000001    4.7683401440    R0
Au    16.06    9.272245380000001    4.7683401440    R0
Au    5.8400000000    1.6858628760    4.7683401440    R0
Au    14.6    1.6858628760    4.7683401440    R0
Au    10.219999999999999    9.272245380000001    4.7683401440    R0
Au    18.979999999999997    9.272245380000001    4.7683401440    R0
Au    1.4600000000    4.2146570440    4.7683401440    R0
Au    10.219999999999999    4.2146570440    4.7683401440    R0
Au    5.84    11.801039548    4.7683401440    R0
Au    14.6    11.801039548    4.7683401440    R0
Au    4.3800000000    4.2146570440    4.7683401440    R0
Au    13.14    4.2146570440    4.7683401440    R0
Au    8.76    11.801039548    4.7683401440    R0
Au    17.52    11.801039548    4.7683401440    R0
Au    7.3000000000    4.2146570440    4.7683401440    R0
Au    16.06    4.2146570440    4.7683401440    R0
Au    11.68    11.801039548    4.7683401440    R0
Au    20.439999999999998    11.801039548    4.7683401440    R0
Au    2.9200000000    6.7434512120    4.7683401440    R0
Au    11.68    6.7434512120    4.7683401440    R0
Au    7.3    14.329833716    4.7683401440    R0
Au    16.06    14.329833716    4.7683401440    R0
Au    5.8400000000    6.7434512120    4.7683401440    R0
Au    14.6    6.7434512120    4.7683401440    R0
Au    10.219999999999999    14.329833716    4.7683401440    R0
Au    18.979999999999997    14.329833716    4.7683401440    R0
Au    8.7600000000    6.7434512120    4.7683401440    R0
Au    17.52    6.7434512120    4.7683401440    R0
Au    13.14    14.329833716    4.7683401440    R0
Au    21.9    14.329833716    4.7683401440    R0
Au    0.0000000000    0.0000000000    7.1525099240    R1
Au    8.76    0.0000000000    7.1525099240    R1
Au    4.38    7.586382504    7.1525099240    R1
Au    13.14    7.586382504    7.1525099240    R1
Au    2.9200000000    0.0000000000    7.1525099240    R1
Au    11.68    0.0000000000    7.1525099240    R1
Au    7.3    7.586382504    7.1525099240    R1
Au    16.06    7.586382504    7.1525099240    R1
Au    5.8400000000    0.0000000000    7.1525099240    R1
Au    14.6    0.0000000000    7.1525099240    R1
Au    10.219999999999999    7.586382504    7.1525099240    R1
Au    18.979999999999997    7.586382504    7.1525099240    R1
Au    1.4600000000    2.5287941680    7.1525099240    R1
Au    10.219999999999999    2.5287941680    7.1525099240    R1
Au    5.84    10.115176672    7.1525099240    R1
Au    14.6    10.115176672    7.1525099240    R1
Au    4.3800000000    2.5287941680    7.1525099240    R1
Au    13.14    2.5287941680    7.1525099240    R1
Au    8.76    10.115176672    7.1525099240    R1
Au    17.52    10.115176672    7.1525099240    R1
Au    7.3000000000    2.5287941680    7.1525099240    R1
Au    16.06    2.5287941680    7.1525099240    R1
Au    11.68    10.115176672    7.1525099240    R1
Au    20.439999999999998    10.115176672    7.1525099240    R1
Au    2.9200000000    5.0575883360    7.1525099240    R1
Au    11.68    5.0575883360    7.1525099240    R1
Au    7.3    12.643970840000001    7.1525099240    R1
Au    16.06    12.643970840000001    7.1525099240    R1
Au    5.8400000000    5.0575883360    7.1525099240    R1
Au    14.6    5.0575883360    7.1525099240    R1
Au    10.219999999999999    12.643970840000001    7.1525099240    R1
Au    18.979999999999997    12.643970840000001    7.1525099240    R1
Au    8.7600000000    5.0575883360    7.1525099240    R1
Au    17.52    5.0575883360    7.1525099240    R1
Au    13.14    12.643970840000001    7.1525099240    R1
Au    21.9    12.643970840000001    7.1525099240    R1
Au    1.4600000000    0.8429312920    9.5366799960    R1
Au    10.219999999999999    0.8429312920    9.5366799960    R1
Au    5.84    8.429313796    9.5366799960    R1
Au    14.6    8.429313796    9.5366799960    R1
Au    4.3800000000    0.8429312920    9.5366799960    R1
Au    13.14    0.8429312920    9.5366799960    R1
Au    8.76    8.429313796    9.5366799960    R1
Au    17.52    8.429313796    9.5366799960    R1
Au    7.3000000000    0.8429312920    9.5366799960    R1
Au    16.06    0.8429312920    9.5366799960    R1
Au    11.68    8.429313796    9.5366799960    R1
Au    20.439999999999998    8.429313796    9.5366799960    R1
Au    2.9200000000    3.3717254600    9.5366799960    R1
Au    11.68    3.3717254600    9.5366799960    R1
Au    7.3    10.958107964    9.5366799960    R1
Au    16.06    10.958107964    9.5366799960    R1
Au    5.8400000000    3.3717254600    9.5366799960    R1
Au    14.6    3.3717254600    9.5366799960    R1
Au    10.219999999999999    10.958107964    9.5366799960    R1
Au    18.979999999999997    10.958107964    9.5366799960    R1
Au    8.7600000000    3.3717254600    9.5366799960    R1
Au    17.52    3.3717254600    9.5366799960    R1
Au    13.14    10.958107964    9.5366799960    R1
Au    21.9    10.958107964    9.5366799960    R1
Au    4.3800000000    5.9005196280    9.5366799960    R1
Au    13.14    5.9005196280    9.5366799960    R1
Au    8.76    13.486902132    9.5366799960    R1
Au    17.52    13.486902132    9.5366799960    R1
Au    7.3000000000    5.9005196280    9.5366799960    R1
Au    16.06    5.9005196280    9.5366799960    R1
Au    11.68    13.486902132    9.5366799960    R1
Au    20.439999999999998    13.486902132    9.5366799960    R1
Au    10.2200000000    5.9005196280    9.5366799960    R1
Au    18.98    5.9005196280    9.5366799960    R1
Au    14.600000000000001    13.486902132    9.5366799960    R1
Au    23.36    13.486902132    9.5366799960    R1
Au    0.0000000000    1.6858628760    11.9208500680    R1
Au    8.76    1.6858628760    11.9208500680    R1
Au    4.38    9.272245380000001    11.9208500680    R1
Au    13.14    9.272245380000001    11.9208500680    R1
Au    2.9200000000    1.6858628760    11.9208500680    R1
Au    11.68    1.6858628760    11.9208500680    R1
Au    7.3    9.272245380000001    11.9208500680    R1
Au    16.06    9.272245380000001    11.9208500680    R1
Au    5.8400000000    1.6858628760    11.9208500680    R1
Au    14.6    1.6858628760    11.9208500680    R1
Au    10.219999999999999    9.272245380000001    11.9208500680    R1
Au    18.979999999999997    9.272245380000001    11.9208500680    R1
Au    1.4600000000    4.2146570440    11.9208500680    R1
Au    10.219999999999999    4.2146570440    11.9208500680    R1
Au    5.84    11.801039548    11.9208500680    R1
Au    14.6    11.801039548    11.9208500680    R1
Au    4.3800000000    4.2146570440    11.9208500680    R1
Au    13.14    4.2146570440    11.9208500680    R1
Au    8.76    11.801039548    11.9208500680    R1
Au    17.52    11.801039548    11.9208500680    R1
Au    7.3000000000    4.2146570440    11.9208500680    R1
Au    16.06    4.2146570440    11.9208500680    R1
Au    11.68    11.801039548    11.9208500680    R1
Au    20.439999999999998    11.801039548    11.9208500680    R1
Au    2.9200000000    6.7434512120    11.9208500680    R1
Au    11.68    6.7434512120    11.9208500680    R1
Au    7.3    14.329833716    11.9208500680    R1
Au    16.06    14.329833716    11.9208500680    R1
Au    5.8400000000    6.7434512120    11.9208500680    R1
Au    14.6    6.7434512120    11.9208500680    R1
Au    10.219999999999999    14.329833716    11.9208500680    R1
Au    18.979999999999997    14.329833716    11.9208500680    R1
Au    8.7600000000    6.7434512120    11.9208500680    R1
Au    17.52    6.7434512120    11.9208500680    R1
Au    13.14    14.329833716    11.9208500680    R1
Au    21.9    14.329833716    11.9208500680    R1
Au    0.0000000000    0.0000000000    14.3050198480    R2
Au    8.76    0.0000000000    14.3050198480    R2
Au    4.38    7.586382504    14.3050198480    R2
Au    13.14    7.586382504    14.3050198480    R2
Au    2.9200000000    0.0000000000    14.3050198480    R2
Au    11.68    0.0000000000    14.3050198480    R2
Au    7.3    7.586382504    14.3050198480    R2
Au    16.06    7.586382504    14.3050198480    R2
Au    5.8400000000    0.0000000000    14.3050198480    R2
Au    14.6    0.0000000000    14.3050198480    R2
Au    10.219999999999999    7.586382504    14.3050198480    R2
Au    18.979999999999997    7.586382504    14.3050198480    R2
Au    1.4600000000    2.5287941680    14.3050198480    R2
Au    10.219999999999999    2.5287941680    14.3050198480    R2
Au    5.84    10.115176672    14.3050198480    R2
Au    14.6    10.115176672    14.3050198480    R2
Au    4.3800000000    2.5287941680    14.3050198480    R2
Au    13.14    2.5287941680    14.3050198480    R2
Au    8.76    10.115176672    14.3050198480    R2
Au    17.52    10.115176672    14.3050198480    R2
Au    7.3000000000    2.5287941680    14.3050198480    R2
Au    16.06    2.5287941680    14.3050198480    R2
Au    11.68    10.115176672    14.3050198480    R2
Au    20.439999999999998    10.115176672    14.3050198480    R2
Au    2.9200000000    5.0575883360    14.3050198480    R2
Au    11.68    5.0575883360    14.3050198480    R2
Au    7.3    12.643970840000001    14.3050198480    R2
Au    16.06    12.643970840000001    14.3050198480    R2
Au    5.8400000000    5.0575883360    14.3050198480    R2
Au    14.6    5.0575883360    14.3050198480    R2
Au    10.219999999999999    12.643970840000001    14.3050198480    R2
Au    18.979999999999997    12.643970840000001    14.3050198480    R2
Au    8.7600000000    5.0575883360    14.3050198480    R2
Au    17.52    5.0575883360    14.3050198480    R2
Au    13.14    12.643970840000001    14.3050198480    R2
Au    21.9    12.643970840000001    14.3050198480    R2
Au    1.4600000000    0.8429312920    16.6891899200    R2
Au    10.219999999999999    0.8429312920    16.6891899200    R2
Au    5.84    8.429313796    16.6891899200    R2
Au    14.6    8.429313796    16.6891899200    R2
Au    4.3800000000    0.8429312920    16.6891899200    R2
Au    13.14    0.8429312920    16.6891899200    R2
Au    8.76    8.429313796    16.6891899200    R2
Au    17.52    8.429313796    16.6891899200    R2
Au    7.3000000000    0.8429312920    16.6891899200    R2
Au    16.06    0.8429312920    16.6891899200    R2
Au    11.68    8.429313796    16.6891899200    R2
Au    20.439999999999998    8.429313796    16.6891899200    R2
Au    2.9200000000    3.3717254600    16.6891899200    R2
Au    11.68    3.3717254600    16.6891899200    R2
Au    7.3    10.958107964    16.6891899200    R2
Au    16.06    10.958107964    16.6891899200    R2
Au    5.8400000000    3.3717254600    16.6891899200    R2
Au    14.6    3.3717254600    16.6891899200    R2
Au    10.219999999999999    10.958107964    16.6891899200    R2
Au    18.979999999999997    10.958107964    16.6891899200    R2
Au    8.7600000000    3.3717254600    16.6891899200    R2
Au    17.52    3.3717254600    16.6891899200    R2
Au    13.14    10.958107964    16.6891899200    R2
Au    21.9    10.958107964    16.6891899200    R2
Au    4.3800000000    5.9005196280    16.6891899200    R2
Au    13.14    5.9005196280    16.6891899200    R2
Au    8.76    13.486902132    16.6891899200    R2
Au    17.52    13.486902132    16.6891899200    R2
Au    7.3000000000    5.9005196280    16.6891899200    R2
Au    16.06    5.9005196280    16.6891899200    R2
Au    11.68    13.486902132    16.6891899200    R2
Au    20.439999999999998    13.486902132    16.6891899200    R2
Au    10.2200000000    5.9005196280    16.6891899200    R2
Au    18.98    5.9005196280    16.6891899200    R2
Au    14.600000000000001    13.486902132    16.6891899200    R2
Au    23.36    13.486902132    16.6891899200    R2
Au    0.0000000000    1.6858628760    19.0733599920    R2
Au    8.76    1.6858628760    19.0733599920    R2
Au    4.38    9.272245380000001    19.0733599920    R2
Au    13.14    9.272245380000001    19.0733599920    R2
Au    2.9200000000    1.6858628760    19.0733599920    R2
Au    11.68    1.6858628760    19.0733599920    R2
Au    7.3    9.272245380000001    19.0733599920    R2
Au    16.06    9.272245380000001    19.0733599920    R2
Au    5.8400000000    1.6858628760    19.0733599920    R2
Au    14.6    1.6858628760    19.0733599920    R2
Au    10.219999999999999    9.272245380000001    19.0733599920    R2
Au    18.979999999999997    9.272245380000001    19.0733599920    R2
Au    1.4600000000    4.2146570440    19.0733599920    R2
Au    10.219999999999999    4.2146570440    19.0733599920    R2
Au    5.84    11.801039548    19.0733599920    R2
Au    14.6    11.801039548    19.0733599920    R2
Au    4.3800000000    4.2146570440    19.0733599920    R2
Au    13.14    4.2146570440    19.0733599920    R2
Au    8.76    11.801039548    19.0733599920    R2
Au    17.52    11.801039548    19.0733599920    R2
Au    7.3000000000    4.2146570440    19.0733599920    R2
Au    16.06    4.2146570440    19.0733599920    R2
Au    11.68    11.801039548    19.0733599920    R2
Au    20.439999999999998    11.801039548    19.0733599920    R2
Au    2.9200000000    6.7434512120    19.0733599920    R2
Au    11.68    6.7434512120    19.0733599920    R2
Au    7.3    14.329833716    19.0733599920    R2
Au    16.06    14.329833716    19.0733599920    R2
Au    5.8400000000    6.7434512120    19.0733599920    R2
Au    14.6    6.7434512120    19.0733599920    R2
Au    10.219999999999999    14.329833716    19.0733599920    R2
Au    18.979999999999997    14.329833716    19.0733599920    R2
Au    8.7600000000    6.7434512120    19.0733599920    R2
Au    17.52    6.7434512120    19.0733599920    R2
Au    13.14    14.329833716    19.0733599920    R2
Au    21.9    14.329833716    19.0733599920    R2
Au    0.0000000000    0.0000000000    21.4575297720    R3
Au    8.76    0.0000000000    21.4575297720    R3
Au    4.38    7.586382504    21.4575297720    R3
Au    13.14    7.586382504    21.4575297720    R3
Au    2.9200000000    0.0000000000    21.4575297720    R3
Au    11.68    0.0000000000    21.4575297720    R3
Au    7.3    7.586382504    21.4575297720    R3
Au    16.06    7.586382504    21.4575297720    R3
Au    5.8400000000    0.0000000000    21.4575297720    R3
Au    14.6    0.0000000000    21.4575297720    R3
Au    10.219999999999999    7.586382504    21.4575297720    R3
Au    18.979999999999997    7.586382504    21.4575297720    R3
Au    1.4600000000    2.5287941680    21.4575297720    R3
Au    10.219999999999999    2.5287941680    21.4575297720    R3
Au    5.84    10.115176672    21.4575297720    R3
Au    14.6    10.115176672    21.4575297720    R3
Au    4.3800000000    2.5287941680    21.4575297720    R3
Au    13.14    2.5287941680    21.4575297720    R3
Au    8.76    10.115176672    21.4575297720    R3
Au    17.52    10.115176672    21.4575297720    R3
Au    7.3000000000    2.5287941680    21.4575297720    R3
Au    16.06    2.5287941680    21.4575297720    R3
Au    11.68    10.115176672    21.4575297720    R3
Au    20.439999999999998    10.115176672    21.4575297720    R3
Au    2.9200000000    5.0575883360    21.4575297720    R3
Au    11.68    5.0575883360    21.4575297720    R3
Au    7.3    12.643970840000001    21.4575297720    R3
Au    16.06    12.643970840000001    21.4575297720    R3
Au    5.8400000000    5.0575883360    21.4575297720    R3
Au    14.6    5.0575883360    21.4575297720    R3
Au    10.219999999999999    12.643970840000001    21.4575297720    R3
Au    18.979999999999997    12.643970840000001    21.4575297720    R3
Au    8.7600000000    5.0575883360    21.4575297720    R3
Au    17.52    5.0575883360    21.4575297720    R3
Au    13.14    12.643970840000001    21.4575297720    R3
Au    21.9    12.643970840000001    21.4575297720    R3
Au    1.4600000000    0.8429312920    23.8416998440    R3
Au    10.219999999999999    0.8429312920    23.8416998440    R3
Au    5.84    8.429313796    23.8416998440    R3
Au    14.6    8.429313796    23.8416998440    R3
Au    4.3800000000    0.8429312920    23.8416998440    R3
Au    13.14    0.8429312920    23.8416998440    R3
Au    8.76    8.429313796    23.8416998440    R3
Au    17.52    8.429313796    23.8416998440    R3
Au    7.3000000000    0.8429312920    23.8416998440    R3
Au    16.06    0.8429312920    23.8416998440    R3
Au    11.68    8.429313796    23.8416998440    R3
Au    20.439999999999998    8.429313796    23.8416998440    R3
Au    2.9200000000    3.3717254600    23.8416998440    R3
Au    11.68    3.3717254600    23.8416998440    R3
Au    7.3    10.958107964    23.8416998440    R3
Au    16.06    10.958107964    23.8416998440    R3
Au    5.8400000000    3.3717254600    23.8416998440    R3
Au    14.6    3.3717254600    23.8416998440    R3
Au    10.219999999999999    10.958107964    23.8416998440    R3
Au    18.979999999999997    10.958107964    23.8416998440    R3
Au    8.7600000000    3.3717254600    23.8416998440    R3
Au    17.52    3.3717254600    23.8416998440    R3
Au    13.14    10.958107964    23.8416998440    R3
Au    21.9    10.958107964    23.8416998440    R3
Au    4.3800000000    5.9005196280    23.8416998440    R3
Au    13.14    5.9005196280    23.8416998440    R3
Au    8.76    13.486902132    23.8416998440    R3
Au    17.52    13.486902132    23.8416998440    R3
Au    7.3000000000    5.9005196280    23.8416998440    R3
Au    16.06    5.9005196280    23.8416998440    R3
Au    11.68    13.486902132    23.8416998440    R3
Au    20.439999999999998    13.486902132    23.8416998440    R3
Au    10.2200000000    5.9005196280    23.8416998440    R3
Au    18.98    5.9005196280    23.8416998440    R3
Au    14.600000000000001    13.486902132    23.8416998440    R3
Au    23.36    13.486902132    23.8416998440    R3
Au    0.0000000000    1.6858628760    26.2258699160    R3
Au    8.76    1.6858628760    26.2258699160    R3
Au    4.38    9.272245380000001    26.2258699160    R3
Au    13.14    9.272245380000001    26.2258699160    R3
Au    2.9200000000    1.6858628760    26.2258699160    R3
Au    11.68    1.6858628760    26.2258699160    R3
Au    7.3    9.272245380000001    26.2258699160    R3
Au    16.06    9.272245380000001    26.2258699160    R3
Au    5.8400000000    1.6858628760    26.2258699160    R3
Au    14.6    1.6858628760    26.2258699160    R3
Au    10.219999999999999    9.272245380000001    26.2258699160    R3
Au    18.979999999999997    9.272245380000001    26.2258699160    R3
Au    1.4600000000    4.2146570440    26.2258699160    R3
Au    10.219999999999999    4.2146570440    26.2258699160    R3
Au    5.84    11.801039548    26.2258699160    R3
Au    14.6    11.801039548    26.2258699160    R3
Au    4.3800000000    4.2146570440    26.2258699160    R3
Au    13.14    4.2146570440    26.2258699160    R3
Au    8.76    11.801039548    26.2258699160    R3
Au    17.52    11.801039548    26.2258699160    R3
Au    7.3000000000    4.2146570440    26.2258699160    R3
Au    16.06    4.2146570440    26.2258699160    R3
Au    11.68    11.801039548    26.2258699160    R3
Au    20.439999999999998    11.801039548    26.2258699160    R3
Au    2.9200000000    6.7434512120    26.2258699160    R3
Au    11.68    6.7434512120    26.2258699160    R3
Au    7.3    14.329833716    26.2258699160    R3
Au    16.06    14.329833716    26.2258699160    R3
Au    5.8400000000    6.7434512120    26.2258699160    R3
Au    14.6    6.7434512120    26.2258699160    R3
Au    10.219999999999999    14.329833716    26.2258699160    R3
Au    18.979999999999997    14.329833716    26.2258699160    R3
Au    8.7600000000    6.7434512120    26.2258699160    R3
Au    17.52    6.7434512120    26.2258699160    R3
Au    13.14    14.329833716    26.2258699160    R3
Au    21.9    14.329833716    26.2258699160    R3