     289
 i =        2, E =     -4007.4006044276
Au    0.0000000000    0.0000000000    0.0000000000    L0
Au    8.7600000000    0.0000000000    0.0000000000    L0
Au    4.3800000000    7.5863825040    0.0000000000    L0
Au    13.1400000000    7.5863825040    0.0000000000    L0
Au    2.9200000000    0.0000000000    0.0000000000    L0
Au    11.6800000000    0.0000000000    0.0000000000    L0
Au    7.3000000000    7.5863825040    0.0000000000    L0
Au    16.0600000000    7.5863825040    0.0000000000    L0
Au    5.8400000000    0.0000000000    0.0000000000    L0
Au    14.6000000000    0.0000000000    0.0000000000    L0
Au    10.2200000000    7.5863825040    0.0000000000    L0
Au    18.9800000000    7.5863825040    0.0000000000    L0
Au    1.4600000000    2.5287941680    0.0000000000    L0
Au    10.2200000000    2.5287941680    0.0000000000    L0
Au    5.8400000000    10.1151766720    0.0000000000    L0
Au    14.6000000000    10.1151766720    0.0000000000    L0
Au    4.3800000000    2.5287941680    0.0000000000    L0
Au    13.1400000000    2.5287941680    0.0000000000    L0
Au    8.7600000000    10.1151766720    0.0000000000    L0
Au    17.5200000000    10.1151766720    0.0000000000    L0
Au    7.3000000000    2.5287941680    0.0000000000    L0
Au    16.0600000000    2.5287941680    0.0000000000    L0
Au    11.6800000000    10.1151766720    0.0000000000    L0
Au    20.4400000000    10.1151766720    0.0000000000    L0
Au    2.9200000000    5.0575883360    0.0000000000    L0
Au    11.6800000000    5.0575883360    0.0000000000    L0
Au    7.3000000000    12.6439708400    0.0000000000    L0
Au    16.0600000000    12.6439708400    0.0000000000    L0
Au    5.8400000000    5.0575883360    0.0000000000    L0
Au    14.6000000000    5.0575883360    0.0000000000    L0
Au    10.2200000000    12.6439708400    0.0000000000    L0
Au    18.9800000000    12.6439708400    0.0000000000    L0
Au    8.7600000000    5.0575883360    0.0000000000    L0
Au    17.5200000000    5.0575883360    0.0000000000    L0
Au    13.1400000000    12.6439708400    0.0000000000    L0
Au    21.9000000000    12.6439708400    0.0000000000    L0
Au    1.4600000000    0.8429312920    2.3841700720    L0
Au    10.2200000000    0.8429312920    2.3841700720    L0
Au    5.8400000000    8.4293137960    2.3841700720    L0
Au    14.6000000000    8.4293137960    2.3841700720    L0
Au    4.3800000000    0.8429312920    2.3841700720    L0
Au    13.1400000000    0.8429312920    2.3841700720    L0
Au    8.7600000000    8.4293137960    2.3841700720    L0
Au    17.5200000000    8.4293137960    2.3841700720    L0
Au    7.3000000000    0.8429312920    2.3841700720    L0
Au    16.0600000000    0.8429312920    2.3841700720    L0
Au    11.6800000000    8.4293137960    2.3841700720    L0
Au    20.4400000000    8.4293137960    2.3841700720    L0
Au    2.9200000000    3.3717254600    2.3841700720    L0
Au    11.6800000000    3.3717254600    2.3841700720    L0
Au    7.3000000000    10.9581079640    2.3841700720    L0
Au    16.0600000000    10.9581079640    2.3841700720    L0
Au    5.8400000000    3.3717254600    2.3841700720    L0
Au    14.6000000000    3.3717254600    2.3841700720    L0
Au    10.2200000000    10.9581079640    2.3841700720    L0
Au    18.9800000000    10.9581079640    2.3841700720    L0
Au    8.7600000000    3.3717254600    2.3841700720    L0
Au    17.5200000000    3.3717254600    2.3841700720    L0
Au    13.1400000000    10.9581079640    2.3841700720    L0
Au    21.9000000000    10.9581079640    2.3841700720    L0
Au    4.3800000000    5.9005196280    2.3841700720    L0
Au    13.1400000000    5.9005196280    2.3841700720    L0
Au    8.7600000000    13.4869021320    2.3841700720    L0
Au    17.5200000000    13.4869021320    2.3841700720    L0
Au    7.3000000000    5.9005196280    2.3841700720    L0
Au    16.0600000000    5.9005196280    2.3841700720    L0
Au    11.6800000000    13.4869021320    2.3841700720    L0
Au    20.4400000000    13.4869021320    2.3841700720    L0
Au    10.2200000000    5.9005196280    2.3841700720    L0
Au    18.9800000000    5.9005196280    2.3841700720    L0
Au    14.6000000000    13.4869021320    2.3841700720    L0
Au    23.3600000000    13.4869021320    2.3841700720    L0
Au    0.0000000000    1.6858628760    4.7683401440    L0
Au    8.7600000000    1.6858628760    4.7683401440    L0
Au    4.3800000000    9.2722453800    4.7683401440    L0
Au    13.1400000000    9.2722453800    4.7683401440    L0
Au    2.9200000000    1.6858628760    4.7683401440    L0
Au    11.6800000000    1.6858628760    4.7683401440    L0
Au    7.3000000000    9.2722453800    4.7683401440    L0
Au    16.0600000000    9.2722453800    4.7683401440    L0
Au    5.8400000000    1.6858628760    4.7683401440    L0
Au    14.6000000000    1.6858628760    4.7683401440    L0
Au    10.2200000000    9.2722453800    4.7683401440    L0
Au    18.9800000000    9.2722453800    4.7683401440    L0
Au    1.4600000000    4.2146570440    4.7683401440    L0
Au    10.2200000000    4.2146570440    4.7683401440    L0
Au    5.8400000000    11.8010395480    4.7683401440    L0
Au    14.6000000000    11.8010395480    4.7683401440    L0
Au    4.3800000000    4.2146570440    4.7683401440    L0
Au    13.1400000000    4.2146570440    4.7683401440    L0
Au    8.7600000000    11.8010395480    4.7683401440    L0
Au    17.5200000000    11.8010395480    4.7683401440    L0
Au    7.3000000000    4.2146570440    4.7683401440    L0
Au    16.0600000000    4.2146570440    4.7683401440    L0
Au    11.6800000000    11.8010395480    4.7683401440    L0
Au    20.4400000000    11.8010395480    4.7683401440    L0
Au    2.9200000000    6.7434512120    4.7683401440    L0
Au    11.6800000000    6.7434512120    4.7683401440    L0
Au    7.3000000000    14.3298337160    4.7683401440    L0
Au    16.0600000000    14.3298337160    4.7683401440    L0
Au    5.8400000000    6.7434512120    4.7683401440    L0
Au    14.6000000000    6.7434512120    4.7683401440    L0
Au    10.2200000000    14.3298337160    4.7683401440    L0
Au    18.9800000000    14.3298337160    4.7683401440    L0
Au    8.7600000000    6.7434512120    4.7683401440    L0
Au    17.5200000000    6.7434512120    4.7683401440    L0
Au    13.1400000000    14.3298337160    4.7683401440    L0
Au    21.9000000000    14.3298337160    4.7683401440    L0
H    11.7545009284    5.5387820348    11.0277845888    S
C    11.3228252092    6.1534174892    10.2358656441    S
C    11.2879204199    7.5468794996    10.3817991302    S
C    10.7366564236    8.3160966973    9.3437302803    S
H    10.7102404921    9.4029605440    9.4357999497    S
C    10.1755083533    7.7089567271    8.2239105591    S
H    9.7095534692    8.3157539398    7.4461562219    S
C    10.1678148399    6.3072166603    8.1126645886    S
C    10.7830925596    5.5323485076    9.1108790168    S
H    10.7971815126    4.4459880189    9.0238240214    S
C    11.7927073730    8.1920669440    11.6494242184    S
N    10.7935020556    9.1009901002    12.2575857590    S
H    12.6794705236    8.8099848221    11.4321684043    S
H    12.1197381248    7.4030045648    12.3503617835    S
C    11.1968180551    9.6731178153    13.5267962089    S
C    9.4636587835    8.5677818189    12.4794499574    S
C    8.1990619212    8.5120905140    20.2258097720    S
C    7.7874411611    7.1969036288    20.6777916453    S
C    8.9740348193    6.4625299338    21.0703992344    S
C    10.1276596618    7.3241400959    20.8640688616    S
C    9.6472842401    8.5898312740    20.3355685966    S
C    10.3877367743    9.2626848177    19.3591921692    S
C    11.6406290024    8.7095763765    18.8788397013    S
C    12.1062349580    7.4920314570    19.3932268675    S
C    11.3300030391    6.7859094216    20.3988891089    S
C    11.4288336952    5.3612434689    20.1203975914    S
C    10.3202758285    4.5326071956    20.3161753465    S
C    9.0691212173    5.0920013613    20.8017852643    S
C    7.9805832853    4.4054103706    20.1350017160    S
C    6.8319294678    5.1115624650    19.7587499327    S
C    6.7327271009    6.5318002990    20.0320441811    S
C    6.0564385251    7.1610103677    18.9139880710    S
C    5.7395576373    6.1253657056    17.9430852606    S
C    6.2137918381    4.8554366974    18.4672526829    S
C    6.7642785462    3.9058004612    17.6027014322    S
C    7.9576074645    3.1711923133    17.9946033109    S
C    8.5540694566    3.4183249660    19.2344433568    S
C    10.0006455468    3.4998705703    19.3451884989    S
C    10.7979634744    3.3402300944    18.2076713263    S
C    11.9466139855    4.2058016922    18.0007020562    S
C    12.2621353669    5.1944722357    18.9428697754    S
C    12.6800261997    6.5090579532    18.4948611596    S
C    12.7644903053    6.7846543061    17.1245800814    S
C    12.2795477140    8.0459469276    16.5929695102    S
C    11.7413274280    8.9920467259    17.4592549655    S
C    10.5292691022    9.7123683961    17.0544277750    S
C    9.9541761785    9.4824295006    15.8136505572    S
C    10.6505070255    8.7151354836    14.6866938456    S
C    11.6827147230    7.8049928977    15.2856636248    S
C    11.7448775683    6.4272839946    15.0403908214    S
C    12.4282508650    5.7666396236    16.1584024609    S
C    12.0320012980    4.5037700324    16.5861336362    S
C    10.9328151959    3.8091948291    15.9125027852    S
C    10.1780861432    3.0897089535    16.9176067638    S
C    8.7831499394    2.9992266624    16.8123052910    S
C    8.1038131039    3.6217944937    15.6922469280    S
C    6.8570744561    4.1808813206    16.1785720926    S
C    6.4054168407    5.4077345356    15.6734623091    S
C    5.8403741377    6.3948932753    16.5751692547    S
C    6.2693941990    7.7091678104    16.1280262937    S
C    7.0961817467    7.5460878437    14.9535802305    S
C    7.1736592690    6.1107215812    14.6635292593    S
C    8.3765277948    5.5834614296    14.2049378116    S
C    8.8442344177    4.3108522872    14.7238414174    S
C    10.2797721754    4.4093301061    14.8412501138    S
C    10.6704061351    5.7474513652    14.3811462132    S
C    9.5273494315    6.4447434215    13.9731110159    S
C    9.4259868096    7.9396091934    13.9438250957    S
C    8.1920499961    8.3679232837    14.7383102336    S
C    8.5275930495    9.3639024281    15.7140010621    S
C    7.7088721074    9.5556961116    16.8515041239    S
C    6.5572362412    8.7110135700    17.0611124529    S
C    6.4517532738    8.4310784866    18.4808462352    S
C    7.5439770006    9.1201582961    19.1498699129    S
C    8.3123733757    9.8178488834    18.1358783539    S
C    9.7069158037    9.8767788024    18.2322635129    S
H    9.1806761938    7.8417115975    11.7103032835    S
H    8.7358464305    9.3936054276    12.4575861351    S
S    9.1958039890    5.4466630025    6.9041063562    S
H    10.7173463044    10.6553469907    13.6600727267    S
H    12.2835765742    9.8087291045    13.5834448159    S
Au 8.76000   6.74345 24.07040 R0
Au    0.0000000000    0.0000000000    26.45457    R0
Au    8.76    0.0000000000    26.45457    R0
Au    4.38    7.586382504    26.45457    R0
Au    13.14    7.586382504    26.45457    R0
Au    2.9200000000    0.0000000000    26.45457    R0
Au    11.68    0.0000000000    26.45457    R0
Au    7.3    7.586382504    26.45457    R0
Au    16.06    7.586382504    26.45457    R0
Au    5.8400000000    0.0000000000    26.45457    R0
Au    14.6    0.0000000000    26.45457    R0
Au    10.219999999999999    7.586382504    26.45457    R0
Au    18.979999999999997    7.586382504    26.45457    R0
Au    1.4600000000    2.5287941680    26.45457    R0
Au    10.219999999999999    2.5287941680    26.45457    R0
Au    5.84    10.115176672    26.45457    R0
Au    14.6    10.115176672    26.45457    R0
Au    4.3800000000    2.5287941680    26.45457    R0
Au    13.14    2.5287941680    26.45457    R0
Au    8.76    10.115176672    26.45457    R0
Au    17.52    10.115176672    26.45457    R0
Au    7.3000000000    2.5287941680    26.45457    R0
Au    16.06    2.5287941680    26.45457    R0
Au    11.68    10.115176672    26.45457    R0
Au    20.439999999999998    10.115176672    26.45457    R0
Au    2.9200000000    5.0575883360    26.45457    R0
Au    11.68    5.0575883360    26.45457    R0
Au    7.3    12.643970840000001    26.45457    R0
Au    16.06    12.643970840000001    26.45457    R0
Au    5.8400000000    5.0575883360    26.45457    R0
Au    14.6    5.0575883360    26.45457    R0
Au    10.219999999999999    12.643970840000001    26.45457    R0
Au    18.979999999999997    12.643970840000001    26.45457    R0
Au    8.7600000000    5.0575883360    26.45457    R0
Au    17.52    5.0575883360    26.45457    R0
Au    13.14    12.643970840000001    26.45457    R0
Au    21.9    12.643970840000001    26.45457    R0
Au    1.4600000000    0.8429312920    28.838740072    R0
Au    10.219999999999999    0.8429312920    28.838740072    R0
Au    5.84    8.429313796    28.838740072    R0
Au    14.6    8.429313796    28.838740072    R0
Au    4.3800000000    0.8429312920    28.838740072    R0
Au    13.14    0.8429312920    28.838740072    R0
Au    8.76    8.429313796    28.838740072    R0
Au    17.52    8.429313796    28.838740072    R0
Au    7.3000000000    0.8429312920    28.838740072    R0
Au    16.06    0.8429312920    28.838740072    R0
Au    11.68    8.429313796    28.838740072    R0
Au    20.439999999999998    8.429313796    28.838740072    R0
Au    2.9200000000    3.3717254600    28.838740072    R0
Au    11.68    3.3717254600    28.838740072    R0
Au    7.3    10.958107964    28.838740072    R0
Au    16.06    10.958107964    28.838740072    R0
Au    5.8400000000    3.3717254600    28.838740072    R0
Au    14.6    3.3717254600    28.838740072    R0
Au    10.219999999999999    10.958107964    28.838740072    R0
Au    18.979999999999997    10.958107964    28.838740072    R0
Au    8.7600000000    3.3717254600    28.838740072    R0
Au    17.52    3.3717254600    28.838740072    R0
Au    13.14    10.958107964    28.838740072    R0
Au    21.9    10.958107964    28.838740072    R0
Au    4.3800000000    5.9005196280    28.838740072    R0
Au    13.14    5.9005196280    28.838740072    R0
Au    8.76    13.486902132    28.838740072    R0
Au    17.52    13.486902132    28.838740072    R0
Au    7.3000000000    5.9005196280    28.838740072    R0
Au    16.06    5.9005196280    28.838740072    R0
Au    11.68    13.486902132    28.838740072    R0
Au    20.439999999999998    13.486902132    28.838740072    R0
Au    10.2200000000    5.9005196280    28.838740072    R0
Au    18.98    5.9005196280    28.838740072    R0
Au    14.600000000000001    13.486902132    28.838740072    R0
Au    23.36    13.486902132    28.838740072    R0
Au    0.0000000000    1.6858628760    31.222910144    R0
Au    8.76    1.6858628760    31.222910144    R0
Au    4.38    9.272245380000001    31.222910144    R0
Au    13.14    9.272245380000001    31.222910144    R0
Au    2.9200000000    1.6858628760    31.222910144    R0
Au    11.68    1.6858628760    31.222910144    R0
Au    7.3    9.272245380000001    31.222910144    R0
Au    16.06    9.272245380000001    31.222910144    R0
Au    5.8400000000    1.6858628760    31.222910144    R0
Au    14.6    1.6858628760    31.222910144    R0
Au    10.219999999999999    9.272245380000001    31.222910144    R0
Au    18.979999999999997    9.272245380000001    31.222910144    R0
Au    1.4600000000    4.2146570440    31.222910144    R0
Au    10.219999999999999    4.2146570440    31.222910144    R0
Au    5.84    11.801039548    31.222910144    R0
Au    14.6    11.801039548    31.222910144    R0
Au    4.3800000000    4.2146570440    31.222910144    R0
Au    13.14    4.2146570440    31.222910144    R0
Au    8.76    11.801039548    31.222910144    R0
Au    17.52    11.801039548    31.222910144    R0
Au    7.3000000000    4.2146570440    31.222910144    R0
Au    16.06    4.2146570440    31.222910144    R0
Au    11.68    11.801039548    31.222910144    R0
Au    20.439999999999998    11.801039548    31.222910144    R0
Au    2.9200000000    6.7434512120    31.222910144    R0
Au    11.68    6.7434512120    31.222910144    R0
Au    7.3    14.329833716    31.222910144    R0
Au    16.06    14.329833716    31.222910144    R0
Au    5.8400000000    6.7434512120    31.222910144    R0
Au    14.6    6.7434512120    31.222910144    R0
Au    10.219999999999999    14.329833716    31.222910144    R0
Au    18.979999999999997    14.329833716    31.222910144    R0
Au    8.7600000000    6.7434512120    31.222910144    R0
Au    17.52    6.7434512120    31.222910144    R0
Au    13.14    14.329833716    31.222910144    R0
Au    21.9    14.329833716    31.222910144    R0
