     298
 i =       77, E =     -7630.7679596585
 Au         0.0000000000        0.0000000000        0.0000000000
 Au         8.7600000000        0.0000000000        0.0000000000
 Au         4.3800000000        7.5863825040        0.0000000000
 Au        13.1400000000        7.5863825040        0.0000000000
 Au         2.9200000000        0.0000000000        0.0000000000
 Au        11.6800000000        0.0000000000        0.0000000000
 Au         7.3000000000        7.5863825040        0.0000000000
 Au        16.0600000000        7.5863825040        0.0000000000
 Au         5.8400000000        0.0000000000        0.0000000000
 Au        14.6000000000        0.0000000000        0.0000000000
 Au        10.2200000000        7.5863825040        0.0000000000
 Au        18.9800000000        7.5863825040        0.0000000000
 Au         1.4600000000        2.5287941680        0.0000000000
 Au        10.2200000000        2.5287941680        0.0000000000
 Au         5.8400000000       10.1151766720        0.0000000000
 Au        14.6000000000       10.1151766720        0.0000000000
 Au         4.3800000000        2.5287941680        0.0000000000
 Au        13.1400000000        2.5287941680        0.0000000000
 Au         8.7600000000       10.1151766720        0.0000000000
 Au        17.5200000000       10.1151766720        0.0000000000
 Au         7.3000000000        2.5287941680        0.0000000000
 Au        16.0600000000        2.5287941680        0.0000000000
 Au        11.6800000000       10.1151766720        0.0000000000
 Au        20.4400000000       10.1151766720        0.0000000000
 Au         2.9200000000        5.0575883360        0.0000000000
 Au        11.6800000000        5.0575883360        0.0000000000
 Au         7.3000000000       12.6439708400        0.0000000000
 Au        16.0600000000       12.6439708400        0.0000000000
 Au         5.8400000000        5.0575883360        0.0000000000
 Au        14.6000000000        5.0575883360        0.0000000000
 Au        10.2200000000       12.6439708400        0.0000000000
 Au        18.9800000000       12.6439708400        0.0000000000
 Au         8.7600000000        5.0575883360        0.0000000000
 Au        17.5200000000        5.0575883360        0.0000000000
 Au        13.1400000000       12.6439708400        0.0000000000
 Au        21.9000000000       12.6439708400        0.0000000000
 Au         1.4600000000        0.8429312920        2.3841700720
 Au        10.2200000000        0.8429312920        2.3841700720
 Au         5.8400000000        8.4293137960        2.3841700720
 Au        14.6000000000        8.4293137960        2.3841700720
 Au         4.3800000000        0.8429312920        2.3841700720
 Au        13.1400000000        0.8429312920        2.3841700720
 Au         8.7600000000        8.4293137960        2.3841700720
 Au        17.5200000000        8.4293137960        2.3841700720
 Au         7.3000000000        0.8429312920        2.3841700720
 Au        16.0600000000        0.8429312920        2.3841700720
 Au        11.6800000000        8.4293137960        2.3841700720
 Au        20.4400000000        8.4293137960        2.3841700720
 Au         2.9200000000        3.3717254600        2.3841700720
 Au        11.6800000000        3.3717254600        2.3841700720
 Au         7.3000000000       10.9581079640        2.3841700720
 Au        16.0600000000       10.9581079640        2.3841700720
 Au         5.8400000000        3.3717254600        2.3841700720
 Au        14.6000000000        3.3717254600        2.3841700720
 Au        10.2200000000       10.9581079640        2.3841700720
 Au        18.9800000000       10.9581079640        2.3841700720
 Au         8.7600000000        3.3717254600        2.3841700720
 Au        17.5200000000        3.3717254600        2.3841700720
 Au        13.1400000000       10.9581079640        2.3841700720
 Au        21.9000000000       10.9581079640        2.3841700720
 Au         4.3800000000        5.9005196280        2.3841700720
 Au        13.1400000000        5.9005196280        2.3841700720
 Au         8.7600000000       13.4869021320        2.3841700720
 Au        17.5200000000       13.4869021320        2.3841700720
 Au         7.3000000000        5.9005196280        2.3841700720
 Au        16.0600000000        5.9005196280        2.3841700720
 Au        11.6800000000       13.4869021320        2.3841700720
 Au        20.4400000000       13.4869021320        2.3841700720
 Au        10.2200000000        5.9005196280        2.3841700720
 Au        18.9800000000        5.9005196280        2.3841700720
 Au        14.6000000000       13.4869021320        2.3841700720
 Au        23.3600000000       13.4869021320        2.3841700720
 Au         0.0000000000        1.6858628760        4.7683401440
 Au         8.7600000000        1.6858628760        4.7683401440
 Au         4.3800000000        9.2722453800        4.7683401440
 Au        13.1400000000        9.2722453800        4.7683401440
 Au         2.9200000000        1.6858628760        4.7683401440
 Au        11.6800000000        1.6858628760        4.7683401440
 Au         7.3000000000        9.2722453800        4.7683401440
 Au        16.0600000000        9.2722453800        4.7683401440
 Au         5.8400000000        1.6858628760        4.7683401440
 Au        14.6000000000        1.6858628760        4.7683401440
 Au        10.2200000000        9.2722453800        4.7683401440
 Au        18.9800000000        9.2722453800        4.7683401440
 Au         1.4600000000        4.2146570440        4.7683401440
 Au        10.2200000000        4.2146570440        4.7683401440
 Au         5.8400000000       11.8010395480        4.7683401440
 Au        14.6000000000       11.8010395480        4.7683401440
 Au         4.3800000000        4.2146570440        4.7683401440
 Au        13.1400000000        4.2146570440        4.7683401440
 Au         8.7600000000       11.8010395480        4.7683401440
 Au        17.5200000000       11.8010395480        4.7683401440
 Au         7.3000000000        4.2146570440        4.7683401440
 Au        16.0600000000        4.2146570440        4.7683401440
 Au        11.6800000000       11.8010395480        4.7683401440
 Au        20.4400000000       11.8010395480        4.7683401440
 Au         2.9200000000        6.7434512120        4.7683401440
 Au        11.6800000000        6.7434512120        4.7683401440
 Au         7.3000000000       14.3298337160        4.7683401440
 Au        16.0600000000       14.3298337160        4.7683401440
 Au         5.8400000000        6.7434512120        4.7683401440
 Au        14.6000000000        6.7434512120        4.7683401440
 Au        10.2200000000       14.3298337160        4.7683401440
 Au        18.9800000000       14.3298337160        4.7683401440
 Au         8.7600000000        6.7434512120        4.7683401440
 Au        17.5200000000        6.7434512120        4.7683401440
 Au        13.1400000000       14.3298337160        4.7683401440
 Au        21.9000000000       14.3298337160        4.7683401440
  H        11.4660106349        5.2195707130       11.1917294693
  C        11.0804054418        5.8931597867       10.4238138463
  C        11.0633879675        7.2748895396       10.6583139221
  C        10.5730466937        8.1173990317        9.6460347088
  H        10.5597222158        9.1965963200        9.8071650945
  C        10.0704701553        7.5952505867        8.4554331761
  H         9.6680592905        8.2607122369        7.6902905147
  C        10.0507926874        6.2036480688        8.2493556637
  C        10.5919837904        5.3573016459        9.2332745143
  H        10.5943985690        4.2787522196        9.0762771034
  C        11.5682702743        7.8300262506       11.9722275770
  N        10.6090316358        8.7567781310       12.6079386638
  H        12.4888977337        8.4106101565       11.8000211557
  H        11.8417502244        6.9897430258       12.6374668866
  C        11.0724287922        9.4112966110       13.8142817647
  C         9.2954281082        8.2310614072       12.9178063961
  C         8.2678531865        8.8201395954       20.6793889219
  C         7.8629644152        7.5625218133       21.2607974200
  C         9.0624976841        6.8676395459       21.7727586021
  C        10.2198147886        7.7050642967       21.3744310994
  C         9.7173185717        8.9051926259       20.7417465263
  C        10.4291569894        9.4967355287       19.6896569633
  C        11.6679321285        8.9081508070       19.2235330831
  C        12.1448494939        7.7378097911       19.8267494370
  C        11.3983316836        7.1233368170       20.9108460571
  C        11.4911824369        5.6779746298       20.7467826494
  C        10.3943715336        4.8643532475       21.0477879473
  C         9.1591574080        5.4550979562       21.5232475400
  C         8.0559286177        4.7237471383       20.9424556697
  C         6.9008005973        5.4017150617       20.5357259611
  C         6.8038124229        6.8416423529       20.6946237521
  C         6.0949541303        7.3708946158       19.5471647189
  C         5.7524472561        6.2560418982       18.6779957345
  C         6.2426716810        5.0351325950       19.2936940858
  C         6.7699859983        4.0148664483       18.4970369165
  C         7.9743620507        3.3130911078       18.9159939315
  C         8.6040779653        3.6620043993       20.1132449833
  C        10.0511625217        3.7521511142       20.1761696029
  C        10.8154698576        3.4989728408       19.0338644768
  C        11.9546627121        4.3454831039       18.7217724812
  C        12.2934129545        5.4108303130       19.5686952181
  C        12.6951168979        6.6819019602       18.9990039694
  C        12.7419849936        6.8401744947       17.6091566819
  C        12.2429201523        8.0522728435       16.9843089014
  C        11.7298694873        9.0692078064       17.7817057585
  C        10.5050857424        9.7500149770       17.3509340354
  C         9.8963812178        9.4165444622       16.1497676196
  C        10.5612247939        8.5561238689       15.0695842294
  C        11.6102786602        7.7004902344       15.7186227625
  C        11.6692865089        6.3065426705       15.5893584070
  C        12.3809278311        5.7437778346       16.7415410872
  C        12.0016371003        4.5205039375       17.2863210054
  C        10.8865515471        3.7713292422       16.7040600577
  C        10.1616213847        3.1395805199       17.7874128254
  C         8.7647427584        3.0397515521       17.7294982387
  C         8.0526744916        3.5666853696       16.5807986777
  C         6.8195778967        4.1655100496       17.0536364599
  C         6.3531611699        5.3468544438       16.4595696924
  C         5.8124020497        6.4078807920       17.2904167103
  C         6.2247384059        7.6792485322       16.7204821029
  C         7.0181862657        7.4154123929       15.5421346215
  C         7.0895040194        5.9598810751       15.3717939350
  C         8.2798385511        5.3958834752       14.9250726738
  C         8.7641486010        4.1721102088       15.5378270215
  C        10.2022861968        4.2803820857       15.6057508109
  C        10.5769913666        5.5739412866       15.0201972109
  C         9.4223173509        6.2336919973       14.5848124917
  C         9.3159453741        7.7214033609       14.4312556056
  C         8.1063751585        8.2144129742       15.2263291208
  C         8.4673471867        9.2896516993       16.1033240566
  C         7.6803962332        9.5786310192       17.2427375229
  C         6.5357405434        8.7576657251       17.5556172777
  C         6.4715468029        8.5998032036       18.9963851854
  C         7.5809626150        9.3389461645       19.5730566301
  C         8.3192455310        9.9459492647       18.4838895967
  C         9.7157860466       10.0109524170       18.5351802757
  H         8.9999931426        7.4421911271       12.2171524452
  H         8.5514971707        9.0406588630       12.8576345070
  S         9.1526390970        5.4292139893        6.9273498174
  H        10.6142757654       10.4095316105       13.8965577823
  H        12.1624984098        9.5315240703       13.8162639786
 Au         8.8828829885        6.6700960233       24.0130462465
 Au         0.0017121124       -0.2273068224       26.4366282805
 Au         8.7637395968       -0.2500717159       26.4361337539
 Au         4.3802288981        7.5893360487       26.2604042586
 Au        13.1717925149        7.5940417814       26.2594622551
 Au         2.9221499595       -0.2279695383       26.4364049513
 Au        11.6849146294       -0.2444548928       26.4356701920
 Au         7.2889517973        7.6062884210       26.2203273865
 Au        16.0749631628        7.5871257071       26.2476586326
 Au         5.8411115116       -0.2399055180       26.4337127733
 Au        14.6007984646       -0.2332631854       26.4368414939
 Au        10.2752545789        7.6310245238       26.2836383434
 Au        18.9862496605        7.5855159189       26.2501331656
 Au         1.4624106897        2.4106945700       26.2487595373
 Au        10.2340955052        2.3816340171       26.2551075801
 Au         5.8415153973       10.1861948695       26.2526061208
 Au        14.6106800750       10.1814600670       26.2408079412
 Au         4.3795093292        2.4054203354       26.2458104771
 Au        13.1495002480        2.4037680275       26.2479274373
 Au         8.7667119894       10.2023557724       26.2584125253
 Au        17.5258954444       10.1726699023       26.2430742809
 Au         7.2957898441        2.3813960313       26.2552728081
 Au        16.0659191535        2.4084421866       26.2458099500
 Au        11.6970110076       10.2085521887       26.2499655638
 Au        20.4425354878       10.1740237699       26.2419116534
 Au         2.9221898975        4.9974619469       26.2446794954
 Au        11.6955630461        4.9943938093       26.2587505881
 Au         7.3005653773       12.7821369472       26.2734488991
 Au        16.0632451417       12.7668214344       26.2745292288
 Au         5.8393503038        4.9916693832       26.2600665265
 Au        14.6099830778        4.9963034866       26.2450777784
 Au        10.2224798046       12.7929787243       26.2680269470
 Au        18.9836627830       12.7634998638       26.2740449971
 Au         8.7672529692        4.9397411261       26.2669108645
 Au        17.5257374559        4.9993117662       26.2444015201
 Au        13.1450734928       12.7829392865       26.2725536256
 Au        21.9014472429       12.7702385482       26.2759368808
 Au         1.4600000000        0.8429312920       28.8387400720
 Au        10.2200000000        0.8429312920       28.8387400720
 Au         5.8400000000        8.4293137960       28.8387400720
 Au        14.6000000000        8.4293137960       28.8387400720
 Au         4.3800000000        0.8429312920       28.8387400720
 Au        13.1400000000        0.8429312920       28.8387400720
 Au         8.7600000000        8.4293137960       28.8387400720
 Au        17.5200000000        8.4293137960       28.8387400720
 Au         7.3000000000        0.8429312920       28.8387400720
 Au        16.0600000000        0.8429312920       28.8387400720
 Au        11.6800000000        8.4293137960       28.8387400720
 Au        20.4400000000        8.4293137960       28.8387400720
 Au         2.9200000000        3.3717254600       28.8387400720
 Au        11.6800000000        3.3717254600       28.8387400720
 Au         7.3000000000       10.9581079640       28.8387400720
 Au        16.0600000000       10.9581079640       28.8387400720
 Au         5.8400000000        3.3717254600       28.8387400720
 Au        14.6000000000        3.3717254600       28.8387400720
 Au        10.2200000000       10.9581079640       28.8387400720
 Au        18.9800000000       10.9581079640       28.8387400720
 Au         8.7600000000        3.3717254600       28.8387400720
 Au        17.5200000000        3.3717254600       28.8387400720
 Au        13.1400000000       10.9581079640       28.8387400720
 Au        21.9000000000       10.9581079640       28.8387400720
 Au         4.3800000000        5.9005196280       28.8387400720
 Au        13.1400000000        5.9005196280       28.8387400720
 Au         8.7600000000       13.4869021320       28.8387400720
 Au        17.5200000000       13.4869021320       28.8387400720
 Au         7.3000000000        5.9005196280       28.8387400720
 Au        16.0600000000        5.9005196280       28.8387400720
 Au        11.6800000000       13.4869021320       28.8387400720
 Au        20.4400000000       13.4869021320       28.8387400720
 Au        10.2200000000        5.9005196280       28.8387400720
 Au        18.9800000000        5.9005196280       28.8387400720
 Au        14.6000000000       13.4869021320       28.8387400720
 Au        23.3600000000       13.4869021320       28.8387400720
 Au         0.0000000000        1.6858628760       31.2229101440
 Au         8.7600000000        1.6858628760       31.2229101440
 Au         4.3800000000        9.2722453800       31.2229101440
 Au        13.1400000000        9.2722453800       31.2229101440
 Au         2.9200000000        1.6858628760       31.2229101440
 Au        11.6800000000        1.6858628760       31.2229101440
 Au         7.3000000000        9.2722453800       31.2229101440
 Au        16.0600000000        9.2722453800       31.2229101440
 Au         5.8400000000        1.6858628760       31.2229101440
 Au        14.6000000000        1.6858628760       31.2229101440
 Au        10.2200000000        9.2722453800       31.2229101440
 Au        18.9800000000        9.2722453800       31.2229101440
 Au         1.4600000000        4.2146570440       31.2229101440
 Au        10.2200000000        4.2146570440       31.2229101440
 Au         5.8400000000       11.8010395480       31.2229101440
 Au        14.6000000000       11.8010395480       31.2229101440
 Au         4.3800000000        4.2146570440       31.2229101440
 Au        13.1400000000        4.2146570440       31.2229101440
 Au         8.7600000000       11.8010395480       31.2229101440
 Au        17.5200000000       11.8010395480       31.2229101440
 Au         7.3000000000        4.2146570440       31.2229101440
 Au        16.0600000000        4.2146570440       31.2229101440
 Au        11.6800000000       11.8010395480       31.2229101440
 Au        20.4400000000       11.8010395480       31.2229101440
 Au         2.9200000000        6.7434512120       31.2229101440
 Au        11.6800000000        6.7434512120       31.2229101440
 Au         7.3000000000       14.3298337160       31.2229101440
 Au        16.0600000000       14.3298337160       31.2229101440
 Au         5.8400000000        6.7434512120       31.2229101440
 Au        14.6000000000        6.7434512120       31.2229101440
 Au        10.2200000000       14.3298337160       31.2229101440
 Au        18.9800000000       14.3298337160       31.2229101440
 Au         8.7600000000        6.7434512120       31.2229101440
 Au        17.5200000000        6.7434512120       31.2229101440
 Au        13.1400000000       14.3298337160       31.2229101440
 Au        21.9000000000       14.3298337160       31.2229101440
     298
 i =       78, E =     -7630.7679613509
 Au         0.0000000000        0.0000000000        0.0000000000
 Au         8.7600000000        0.0000000000        0.0000000000
 Au         4.3800000000        7.5863825040        0.0000000000
 Au        13.1400000000        7.5863825040        0.0000000000
 Au         2.9200000000        0.0000000000        0.0000000000
 Au        11.6800000000        0.0000000000        0.0000000000
 Au         7.3000000000        7.5863825040        0.0000000000
 Au        16.0600000000        7.5863825040        0.0000000000
 Au         5.8400000000        0.0000000000        0.0000000000
 Au        14.6000000000        0.0000000000        0.0000000000
 Au        10.2200000000        7.5863825040        0.0000000000
 Au        18.9800000000        7.5863825040        0.0000000000
 Au         1.4600000000        2.5287941680        0.0000000000
 Au        10.2200000000        2.5287941680        0.0000000000
 Au         5.8400000000       10.1151766720        0.0000000000
 Au        14.6000000000       10.1151766720        0.0000000000
 Au         4.3800000000        2.5287941680        0.0000000000
 Au        13.1400000000        2.5287941680        0.0000000000
 Au         8.7600000000       10.1151766720        0.0000000000
 Au        17.5200000000       10.1151766720        0.0000000000
 Au         7.3000000000        2.5287941680        0.0000000000
 Au        16.0600000000        2.5287941680        0.0000000000
 Au        11.6800000000       10.1151766720        0.0000000000
 Au        20.4400000000       10.1151766720        0.0000000000
 Au         2.9200000000        5.0575883360        0.0000000000
 Au        11.6800000000        5.0575883360        0.0000000000
 Au         7.3000000000       12.6439708400        0.0000000000
 Au        16.0600000000       12.6439708400        0.0000000000
 Au         5.8400000000        5.0575883360        0.0000000000
 Au        14.6000000000        5.0575883360        0.0000000000
 Au        10.2200000000       12.6439708400        0.0000000000
 Au        18.9800000000       12.6439708400        0.0000000000
 Au         8.7600000000        5.0575883360        0.0000000000
 Au        17.5200000000        5.0575883360        0.0000000000
 Au        13.1400000000       12.6439708400        0.0000000000
 Au        21.9000000000       12.6439708400        0.0000000000
 Au         1.4600000000        0.8429312920        2.3841700720
 Au        10.2200000000        0.8429312920        2.3841700720
 Au         5.8400000000        8.4293137960        2.3841700720
 Au        14.6000000000        8.4293137960        2.3841700720
 Au         4.3800000000        0.8429312920        2.3841700720
 Au        13.1400000000        0.8429312920        2.3841700720
 Au         8.7600000000        8.4293137960        2.3841700720
 Au        17.5200000000        8.4293137960        2.3841700720
 Au         7.3000000000        0.8429312920        2.3841700720
 Au        16.0600000000        0.8429312920        2.3841700720
 Au        11.6800000000        8.4293137960        2.3841700720
 Au        20.4400000000        8.4293137960        2.3841700720
 Au         2.9200000000        3.3717254600        2.3841700720
 Au        11.6800000000        3.3717254600        2.3841700720
 Au         7.3000000000       10.9581079640        2.3841700720
 Au        16.0600000000       10.9581079640        2.3841700720
 Au         5.8400000000        3.3717254600        2.3841700720
 Au        14.6000000000        3.3717254600        2.3841700720
 Au        10.2200000000       10.9581079640        2.3841700720
 Au        18.9800000000       10.9581079640        2.3841700720
 Au         8.7600000000        3.3717254600        2.3841700720
 Au        17.5200000000        3.3717254600        2.3841700720
 Au        13.1400000000       10.9581079640        2.3841700720
 Au        21.9000000000       10.9581079640        2.3841700720
 Au         4.3800000000        5.9005196280        2.3841700720
 Au        13.1400000000        5.9005196280        2.3841700720
 Au         8.7600000000       13.4869021320        2.3841700720
 Au        17.5200000000       13.4869021320        2.3841700720
 Au         7.3000000000        5.9005196280        2.3841700720
 Au        16.0600000000        5.9005196280        2.3841700720
 Au        11.6800000000       13.4869021320        2.3841700720
 Au        20.4400000000       13.4869021320        2.3841700720
 Au        10.2200000000        5.9005196280        2.3841700720
 Au        18.9800000000        5.9005196280        2.3841700720
 Au        14.6000000000       13.4869021320        2.3841700720
 Au        23.3600000000       13.4869021320        2.3841700720
 Au         0.0000000000        1.6858628760        4.7683401440
 Au         8.7600000000        1.6858628760        4.7683401440
 Au         4.3800000000        9.2722453800        4.7683401440
 Au        13.1400000000        9.2722453800        4.7683401440
 Au         2.9200000000        1.6858628760        4.7683401440
 Au        11.6800000000        1.6858628760        4.7683401440
 Au         7.3000000000        9.2722453800        4.7683401440
 Au        16.0600000000        9.2722453800        4.7683401440
 Au         5.8400000000        1.6858628760        4.7683401440
 Au        14.6000000000        1.6858628760        4.7683401440
 Au        10.2200000000        9.2722453800        4.7683401440
 Au        18.9800000000        9.2722453800        4.7683401440
 Au         1.4600000000        4.2146570440        4.7683401440
 Au        10.2200000000        4.2146570440        4.7683401440
 Au         5.8400000000       11.8010395480        4.7683401440
 Au        14.6000000000       11.8010395480        4.7683401440
 Au         4.3800000000        4.2146570440        4.7683401440
 Au        13.1400000000        4.2146570440        4.7683401440
 Au         8.7600000000       11.8010395480        4.7683401440
 Au        17.5200000000       11.8010395480        4.7683401440
 Au         7.3000000000        4.2146570440        4.7683401440
 Au        16.0600000000        4.2146570440        4.7683401440
 Au        11.6800000000       11.8010395480        4.7683401440
 Au        20.4400000000       11.8010395480        4.7683401440
 Au         2.9200000000        6.7434512120        4.7683401440
 Au        11.6800000000        6.7434512120        4.7683401440
 Au         7.3000000000       14.3298337160        4.7683401440
 Au        16.0600000000       14.3298337160        4.7683401440
 Au         5.8400000000        6.7434512120        4.7683401440
 Au        14.6000000000        6.7434512120        4.7683401440
 Au        10.2200000000       14.3298337160        4.7683401440
 Au        18.9800000000       14.3298337160        4.7683401440
 Au         8.7600000000        6.7434512120        4.7683401440
 Au        17.5200000000        6.7434512120        4.7683401440
 Au        13.1400000000       14.3298337160        4.7683401440
 Au        21.9000000000       14.3298337160        4.7683401440
  H        11.4660106349        5.2195707130       11.1917294693
  C        11.0804054418        5.8931597867       10.4238138463
  C        11.0633879675        7.2748895396       10.6583139221
  C        10.5730466937        8.1173990317        9.6460347088
  H        10.5597222158        9.1965963200        9.8071650945
  C        10.0704701553        7.5952505867        8.4554331761
  H         9.6680592905        8.2607122369        7.6902905147
  C        10.0507926874        6.2036480688        8.2493556637
  C        10.5919837904        5.3573016459        9.2332745143
  H        10.5943985690        4.2787522196        9.0762771034
  C        11.5682702743        7.8300262506       11.9722275770
  N        10.6090316358        8.7567781310       12.6079386638
  H        12.4888977337        8.4106101565       11.8000211557
  H        11.8417502244        6.9897430258       12.6374668866
  C        11.0724287922        9.4112966110       13.8142817647
  C         9.2954281082        8.2310614072       12.9178063961
  C         8.2678531865        8.8201395954       20.6793889219
  C         7.8629644152        7.5625218133       21.2607974200
  C         9.0624976841        6.8676395459       21.7727586021
  C        10.2198147886        7.7050642967       21.3744310994
  C         9.7173185717        8.9051926259       20.7417465263
  C        10.4291569894        9.4967355287       19.6896569633
  C        11.6679321285        8.9081508070       19.2235330831
  C        12.1448494939        7.7378097911       19.8267494370
  C        11.3983316836        7.1233368170       20.9108460571
  C        11.4911824369        5.6779746298       20.7467826494
  C        10.3943715336        4.8643532475       21.0477879473
  C         9.1591574080        5.4550979562       21.5232475400
  C         8.0559286177        4.7237471383       20.9424556697
  C         6.9008005973        5.4017150617       20.5357259611
  C         6.8038124229        6.8416423529       20.6946237521
  C         6.0949541303        7.3708946158       19.5471647189
  C         5.7524472561        6.2560418982       18.6779957345
  C         6.2426716810        5.0351325950       19.2936940858
  C         6.7699859983        4.0148664483       18.4970369165
  C         7.9743620507        3.3130911078       18.9159939315
  C         8.6040779653        3.6620043993       20.1132449833
  C        10.0511625217        3.7521511142       20.1761696029
  C        10.8154698576        3.4989728408       19.0338644768
  C        11.9546627121        4.3454831039       18.7217724812
  C        12.2934129545        5.4108303130       19.5686952181
  C        12.6951168979        6.6819019602       18.9990039694
  C        12.7419849936        6.8401744947       17.6091566819
  C        12.2429201523        8.0522728435       16.9843089014
  C        11.7298694873        9.0692078064       17.7817057585
  C        10.5050857424        9.7500149770       17.3509340354
  C         9.8963812178        9.4165444622       16.1497676196
  C        10.5612247939        8.5561238689       15.0695842294
  C        11.6102786602        7.7004902344       15.7186227625
  C        11.6692865089        6.3065426705       15.5893584070
  C        12.3809278311        5.7437778346       16.7415410872
  C        12.0016371003        4.5205039375       17.2863210054
  C        10.8865515471        3.7713292422       16.7040600577
  C        10.1616213847        3.1395805199       17.7874128254
  C         8.7647427584        3.0397515521       17.7294982387
  C         8.0526744916        3.5666853696       16.5807986777
  C         6.8195778967        4.1655100496       17.0536364599
  C         6.3531611699        5.3468544438       16.4595696924
  C         5.8124020497        6.4078807920       17.2904167103
  C         6.2247384059        7.6792485322       16.7204821029
  C         7.0181862657        7.4154123929       15.5421346215
  C         7.0895040194        5.9598810751       15.3717939350
  C         8.2798385511        5.3958834752       14.9250726738
  C         8.7641486010        4.1721102088       15.5378270215
  C        10.2022861968        4.2803820857       15.6057508109
  C        10.5769913666        5.5739412866       15.0201972109
  C         9.4223173509        6.2336919973       14.5848124917
  C         9.3159453741        7.7214033609       14.4312556056
  C         8.1063751585        8.2144129742       15.2263291208
  C         8.4673471867        9.2896516993       16.1033240566
  C         7.6803962332        9.5786310192       17.2427375229
  C         6.5357405434        8.7576657251       17.5556172777
  C         6.4715468029        8.5998032036       18.9963851854
  C         7.5809626150        9.3389461645       19.5730566301
  C         8.3192455310        9.9459492647       18.4838895967
  C         9.7157860466       10.0109524170       18.5351802757
  H         8.9999931426        7.4421911271       12.2171524452
  H         8.5514971707        9.0406588630       12.8576345070
  S         9.1526390970        5.4292139893        6.9273498174
  H        10.6142757654       10.4095316105       13.8965577823
  H        12.1624984098        9.5315240703       13.8162639786
 Au         8.8828829885        6.6700960233       24.0130462465
 Au         0.0017121124       -0.2273068224       26.4366282805
 Au         8.7637395968       -0.2500717159       26.4361337539
 Au         4.3802288981        7.5893360487       26.2604042586
 Au        13.1717925149        7.5940417814       26.2594622551
 Au         2.9221499595       -0.2279695383       26.4364049513
 Au        11.6849146294       -0.2444548928       26.4356701920
 Au         7.2889517973        7.6062884210       26.2203273865
 Au        16.0749631628        7.5871257071       26.2476586326
 Au         5.8411115116       -0.2399055180       26.4337127733
 Au        14.6007984646       -0.2332631854       26.4368414939
 Au        10.2752545789        7.6310245238       26.2836383434
 Au        18.9862496605        7.5855159189       26.2501331656
 Au         1.4624106897        2.4106945700       26.2487595373
 Au        10.2340955052        2.3816340171       26.2551075801
 Au         5.8415153973       10.1861948695       26.2526061208
 Au        14.6106800750       10.1814600670       26.2408079412
 Au         4.3795093292        2.4054203354       26.2458104771
 Au        13.1495002480        2.4037680275       26.2479274373
 Au         8.7667119894       10.2023557724       26.2584125253
 Au        17.5258954444       10.1726699023       26.2430742809
 Au         7.2957898441        2.3813960313       26.2552728081
 Au        16.0659191535        2.4084421866       26.2458099500
 Au        11.6970110076       10.2085521887       26.2499655638
 Au        20.4425354878       10.1740237699       26.2419116534
 Au         2.9221898975        4.9974619469       26.2446794954
 Au        11.6955630461        4.9943938093       26.2587505881
 Au         7.3005653773       12.7821369472       26.2734488991
 Au        16.0632451417       12.7668214344       26.2745292288
 Au         5.8393503038        4.9916693832       26.2600665265
 Au        14.6099830778        4.9963034866       26.2450777784
 Au        10.2224798046       12.7929787243       26.2680269470
 Au        18.9836627830       12.7634998638       26.2740449971
 Au         8.7672529692        4.9397411261       26.2669108645
 Au        17.5257374559        4.9993117662       26.2444015201
 Au        13.1450734928       12.7829392865       26.2725536256
 Au        21.9014472429       12.7702385482       26.2759368808
 Au         1.4600000000        0.8429312920       28.8387400720
 Au        10.2200000000        0.8429312920       28.8387400720
 Au         5.8400000000        8.4293137960       28.8387400720
 Au        14.6000000000        8.4293137960       28.8387400720
 Au         4.3800000000        0.8429312920       28.8387400720
 Au        13.1400000000        0.8429312920       28.8387400720
 Au         8.7600000000        8.4293137960       28.8387400720
 Au        17.5200000000        8.4293137960       28.8387400720
 Au         7.3000000000        0.8429312920       28.8387400720
 Au        16.0600000000        0.8429312920       28.8387400720
 Au        11.6800000000        8.4293137960       28.8387400720
 Au        20.4400000000        8.4293137960       28.8387400720
 Au         2.9200000000        3.3717254600       28.8387400720
 Au        11.6800000000        3.3717254600       28.8387400720
 Au         7.3000000000       10.9581079640       28.8387400720
 Au        16.0600000000       10.9581079640       28.8387400720
 Au         5.8400000000        3.3717254600       28.8387400720
 Au        14.6000000000        3.3717254600       28.8387400720
 Au        10.2200000000       10.9581079640       28.8387400720
 Au        18.9800000000       10.9581079640       28.8387400720
 Au         8.7600000000        3.3717254600       28.8387400720
 Au        17.5200000000        3.3717254600       28.8387400720
 Au        13.1400000000       10.9581079640       28.8387400720
 Au        21.9000000000       10.9581079640       28.8387400720
 Au         4.3800000000        5.9005196280       28.8387400720
 Au        13.1400000000        5.9005196280       28.8387400720
 Au         8.7600000000       13.4869021320       28.8387400720
 Au        17.5200000000       13.4869021320       28.8387400720
 Au         7.3000000000        5.9005196280       28.8387400720
 Au        16.0600000000        5.9005196280       28.8387400720
 Au        11.6800000000       13.4869021320       28.8387400720
 Au        20.4400000000       13.4869021320       28.8387400720
 Au        10.2200000000        5.9005196280       28.8387400720
 Au        18.9800000000        5.9005196280       28.8387400720
 Au        14.6000000000       13.4869021320       28.8387400720
 Au        23.3600000000       13.4869021320       28.8387400720
 Au         0.0000000000        1.6858628760       31.2229101440
 Au         8.7600000000        1.6858628760       31.2229101440
 Au         4.3800000000        9.2722453800       31.2229101440
 Au        13.1400000000        9.2722453800       31.2229101440
 Au         2.9200000000        1.6858628760       31.2229101440
 Au        11.6800000000        1.6858628760       31.2229101440
 Au         7.3000000000        9.2722453800       31.2229101440
 Au        16.0600000000        9.2722453800       31.2229101440
 Au         5.8400000000        1.6858628760       31.2229101440
 Au        14.6000000000        1.6858628760       31.2229101440
 Au        10.2200000000        9.2722453800       31.2229101440
 Au        18.9800000000        9.2722453800       31.2229101440
 Au         1.4600000000        4.2146570440       31.2229101440
 Au        10.2200000000        4.2146570440       31.2229101440
 Au         5.8400000000       11.8010395480       31.2229101440
 Au        14.6000000000       11.8010395480       31.2229101440
 Au         4.3800000000        4.2146570440       31.2229101440
 Au        13.1400000000        4.2146570440       31.2229101440
 Au         8.7600000000       11.8010395480       31.2229101440
 Au        17.5200000000       11.8010395480       31.2229101440
 Au         7.3000000000        4.2146570440       31.2229101440
 Au        16.0600000000        4.2146570440       31.2229101440
 Au        11.6800000000       11.8010395480       31.2229101440
 Au        20.4400000000       11.8010395480       31.2229101440
 Au         2.9200000000        6.7434512120       31.2229101440
 Au        11.6800000000        6.7434512120       31.2229101440
 Au         7.3000000000       14.3298337160       31.2229101440
 Au        16.0600000000       14.3298337160       31.2229101440
 Au         5.8400000000        6.7434512120       31.2229101440
 Au        14.6000000000        6.7434512120       31.2229101440
 Au        10.2200000000       14.3298337160       31.2229101440
 Au        18.9800000000       14.3298337160       31.2229101440
 Au         8.7600000000        6.7434512120       31.2229101440
 Au        17.5200000000        6.7434512120       31.2229101440
 Au        13.1400000000       14.3298337160       31.2229101440
 Au        21.9000000000       14.3298337160       31.2229101440
