     117
 i =      128, E =     -1614.5766943819
 Au         1.6649000000        0.0000000000       21.1914000000
 Au         6.6598000000        0.0000000000       21.1914000000
 Au         4.1623000000        1.4419000000       21.1914000000
 Au         9.1572000000        1.4419000000       21.1914000000
 Au         6.6598000000        2.8838000000       21.1914000000
 Au        11.6546000000        2.8838000000       21.1914000000
 Au         4.1623000000        4.3256000000       21.1914000000
 Au         9.1572000000        4.3256000000       21.1914000000
 Au         6.6598000000        5.7675000000       21.1914000000
 Au        11.6546000000        5.7675000000       21.1914000000
 Au         9.1572000000        7.2094000000       21.1914000000
 Au        14.1520000000        7.2094000000       21.1914000000
 Au         3.3299000000        0.0000000000       23.5460000000
 Au         8.3247000000        0.0000000000       23.5460000000
 Au         5.8273000000        1.4419000000       23.5460000000
 Au        10.8221000000        1.4419000000       23.5460000000
 Au         8.3247000000        2.8838000000       23.5460000000
 Au        13.3195000000        2.8838000000       23.5460000000
 Au         5.8273000000        4.3256000000       23.5460000000
 Au        10.8221000000        4.3256000000       23.5460000000
 Au         8.3247000000        5.7675000000       23.5460000000
 Au        13.3195000000        5.7675000000       23.5460000000
 Au        10.8221000000        7.2094000000       23.5460000000
 Au        15.8169000000        7.2094000000       23.5460000000
 Au         0.0000000000        0.0000000000       25.9005000000
 Au         4.9948000000        0.0000000000       25.9005000000
 Au         2.4974000000        1.4419000000       25.9005000000
 Au         7.4922000000        1.4419000000       25.9005000000
 Au         4.9948000000        2.8838000000       25.9005000000
 Au         9.9896000000        2.8838000000       25.9005000000
 Au         2.4974000000        4.3256000000       25.9005000000
 Au         7.4922000000        4.3256000000       25.9005000000
 Au         4.9948000000        5.7675000000       25.9005000000
 Au         9.9896000000        5.7675000000       25.9005000000
 Au         7.4922000000        7.2094000000       25.9005000000
 Au        12.4870000000        7.2094000000       25.9005000000
  C         7.7708953521       -0.5283267150       38.9191977978
  C         9.1793385059       -0.4376383641       38.6004970411
  C         9.3111049399       -0.1029501551       37.1980994592
  C         7.9533190095        0.0181069765       36.6391267789
  C         7.0178001360       -0.2468996975       37.7120613796
  C         5.8139250838        0.4605803091       37.7977722055
  C         5.5236844710        1.4780373341       36.8173607115
  C         6.4536000221        1.7400013142       35.8006934173
  C         7.6707064465        0.9828415442       35.6888328793
  C         8.7338506425        1.7942248435       34.9539564126
  C        10.2126407308        1.6513228242       35.5544577696
  C        10.3181304953        0.7439914151       36.7769094616
  C        11.2069176354        1.3114623865       37.7529772603
  C        11.1126928521        0.9765908366       39.1117397986
  C        10.0722337734        0.0791539614       39.5470070106
  C         9.5894547023        0.5351516608       40.8352801312
  C        10.3380261142        1.7266691680       41.1971265063
  C        11.2815622407        1.9985804217       40.1285577201
  C        11.5493039788        3.3149764455       39.7507314223
  C        11.6591468163        3.6597047877       38.3445835818
  C        11.4862749980        2.6764283962       37.3606871239
  C        10.7787964664        2.9500734702       36.1382471800
  C        10.2014851123        4.1970385311       35.9732390651
  C         8.8435228707        4.3235212389       35.4145362764
  C         8.1307692591        3.1932078333       35.0633412358
  C         6.7371667905        3.1074385189       35.4109228878
  C         6.0792826129        4.1687568176       36.0499205176
  C         5.1309267532        3.8966513079       37.1160771990
  C         4.8624706331        2.5795138201       37.4931327771
  C         4.7478173276        2.2343761137       38.8970738361
  C         4.9034330171        3.2193145293       39.8768042992
  C         5.1831908004        4.5890181444       39.4861033628
  C         5.2953475253        4.9196518390       38.1311411729
  C         6.3458382670        5.8187990409       37.6879010683
  C         6.8226391357        5.3548559884       36.4004334950
  C         8.1889643022        5.4208342761       36.0947778321
  C         9.1168178774        5.9727226455       37.0620051911
  C        10.3531222172        5.2196296670       36.9844571897
  C        11.0831891138        4.9636128492       38.1521617252
  C        10.6012651148        5.4350340560       39.4359736728
  C        10.8925618006        4.4157385254       40.4289755745
  C         9.9800100999        4.1567801985       41.4576522675
  C         9.6966840817        2.7858919547       41.8493907013
  C         8.2828033743        2.6930326828       42.1650725332
  C         7.6921089918        4.0061827446       41.9706835849
  C         8.7414210372        4.9098342133       41.5327059789
  C         8.4631085675        5.8924267018       40.5752870238
  C         9.4073398120        6.1563660555       39.5093274498
  C         8.6541416523        6.4326053423       38.2981617724
  C         7.2434189210        6.3485025588       38.6198514957
  C         7.1232678975        6.0110020149       40.0238796258
  C         6.1114960897        5.1463772022       40.4522733523
  C         6.4021814225        4.1230271468       41.4411931354
  C         5.6528591262        2.9314641705       41.0846721933
  C         6.2216602261        1.6657665247       41.2668283633
  C         7.5625268672        1.5435663772       41.8184389946
  C         8.2268831178        0.4480914018       41.1405397573
  C         7.3018231963       -0.1013010530       40.1651244152
  C         6.0607840421        0.6467964429       40.2496371575
  C         5.3348049360        0.9229895925       39.0860593545
  C        11.0254372321        1.0742469287       34.3091851879
  C         8.9249902619        1.3284236250       33.4456419186
  N        10.3289904566        1.4815501878       33.0973836908
  H        12.0721402958        1.4034987257       34.3122002817
  H        11.0084695206       -0.0238596240       34.3853305203
  H         8.6671700768        0.2596617513       33.3904569705
  H         8.2689212485        1.8756336424       32.7592539512
  C         9.9332728032        3.3599065826       31.4716655074
  C         9.4885822674        4.6892396257       31.5173175519
  C         8.7440642533        5.2412640429       30.4781869753
  C         8.3928385278        4.4544469062       29.3646204812
  C         9.6088342989        2.5895553620       30.3420323220
  C         8.8423139768        3.1215711414       29.3079770077
  H         9.7258245549        5.3052974375       32.3866024138
  H         9.9452076387        1.5530355647       30.2839413104
  H         8.5708085750        2.4975016929       28.4551683056
  H         8.4106984895        6.2776985075       30.5336947506
  S         7.2679284562        5.1809044148       28.2123321363
  C        10.7593410590        2.8137618738       32.6106512329
  H        11.8029843360        2.6882452749       32.2748269498
  H        10.7833690992        3.5698032363       33.4143338485