    427
 i =       82, E =     -3365.3998523447
 Au    0.000000    0.000000    0.000000    L3
Au    8.760000    0.000000    0.000000    L3
Au    4.380000    7.586382    0.000000    L3
Au    13.140000    7.586382    0.000000    L3
Au    2.920000    0.000000    0.000000    L3
Au    7.300000    7.586382    0.000000    L3
Au    5.840000    0.000000    0.000000    L3
Au    10.220000    7.586382    0.000000    L3
Au    1.460000    2.528794    0.000000    L3
Au    10.220000    2.528794    0.000000    L3
Au    4.380000    2.528794    0.000000    L3
Au    7.300000    2.528794    0.000000    L3
Au    2.920000    5.057588    0.000000    L3
Au    11.680000    5.057588    0.000000    L3
Au    5.840000    5.057588    0.000000    L3
Au    8.760000    5.057588    0.000000    L3
Au    1.460000    0.842931    2.384170    L3
Au    10.220000    0.842931    2.384170    L3
Au    5.840000    8.429314    2.384170    L3
Au    14.600000    8.429314    2.384170    L3
Au    4.380000    0.842931    2.384170    L3
Au    8.760000    8.429314    2.384170    L3
Au    7.300000    0.842931    2.384170    L3
Au    11.680000    8.429314    2.384170    L3
Au    2.920000    3.371726    2.384170    L3
Au    11.680000    3.371726    2.384170    L3
Au    5.840000    3.371726    2.384170    L3
Au    8.760000    3.371726    2.384170    L3
Au    4.380000    5.900520    2.384170    L3
Au    13.140000    5.900520    2.384170    L3
Au    7.300000    5.900520    2.384170    L3
Au    10.220000    5.900520    2.384170    L3
Au    8.760000    1.685863    4.768340    L3
Au    13.140000    9.272245    4.768340    L3
Au    2.920000    1.685863    4.768340    L3
Au    11.680000    1.685863    4.768340    L3
Au    7.300000    9.272245    4.768340    L3
Au    16.059999    9.272245    4.768340    L3
Au    5.840000    1.685863    4.768340    L3
Au    10.220000    9.272245    4.768340    L3
Au    10.220000    4.214657    4.768340    L3
Au    4.380000    4.214657    4.768340    L3
Au    13.140000    4.214657    4.768340    L3
Au    7.300000    4.214657    4.768340    L3
Au    11.680000    6.743451    4.768340    L3
Au    5.840000    6.743451    4.768340    L3
Au    14.600000    6.743451    4.768340    L3
Au    8.760000    6.743451    4.768340    L3
Au    0.000000    0.000000    7.152510    L2
Au    8.760000    0.000000    7.152510    L2
Au    4.380000    7.586382    7.152510    L2
Au    13.140000    7.586382    7.152510    L2
Au    2.920000    0.000000    7.152510    L2
Au    7.300000    7.586382    7.152510    L2
Au    5.840000    0.000000    7.152510    L2
Au    10.220000    7.586382    7.152510    L2
Au    1.460000    2.528794    7.152510    L2
Au    10.220000    2.528794    7.152510    L2
Au    4.380000    2.528794    7.152510    L2
Au    7.300000    2.528794    7.152510    L2
Au    2.920000    5.057588    7.152510    L2
Au    11.680000    5.057588    7.152510    L2
Au    5.840000    5.057588    7.152510    L2
Au    8.760000    5.057588    7.152510    L2
Au    1.460000    0.842931    9.536680    L2
Au    10.220000    0.842931    9.536680    L2
Au    5.840000    8.429314    9.536680    L2
Au    14.600000    8.429314    9.536680    L2
Au    4.380000    0.842931    9.536680    L2
Au    8.760000    8.429314    9.536680    L2
Au    7.300000    0.842931    9.536680    L2
Au    11.680000    8.429314    9.536680    L2
Au    2.920000    3.371726    9.536680    L2
Au    11.680000    3.371726    9.536680    L2
Au    5.840000    3.371726    9.536680    L2
Au    8.760000    3.371726    9.536680    L2
Au    4.380000    5.900520    9.536680    L2
Au    13.140000    5.900520    9.536680    L2
Au    7.300000    5.900520    9.536680    L2
Au    10.220000    5.900520    9.536680    L2
Au    8.760000    1.685863    11.920850    L2
Au    13.140000    9.272245    11.920850    L2
Au    2.920000    1.685863    11.920850    L2
Au    11.680000    1.685863    11.920850    L2
Au    7.300000    9.272245    11.920850    L2
Au    16.059999    9.272245    11.920850    L2
Au    5.840000    1.685863    11.920850    L2
Au    10.220000    9.272245    11.920850    L2
Au    10.220000    4.214657    11.920850    L2
Au    4.380000    4.214657    11.920850    L2
Au    13.140000    4.214657    11.920850    L2
Au    7.300000    4.214657    11.920850    L2
Au    11.680000    6.743451    11.920850    L2
Au    5.840000    6.743451    11.920850    L2
Au    14.600000    6.743451    11.920850    L2
Au    8.760000    6.743451    11.920850    L2
Au    0.000000    0.000000    14.305019    L1
Au    8.760000    0.000000    14.305019    L1
Au    4.380000    7.586382    14.305019    L1
Au    13.140000    7.586382    14.305019    L1
Au    2.920000    0.000000    14.305019    L1
Au    7.300000    7.586382    14.305019    L1
Au    5.840000    0.000000    14.305019    L1
Au    10.220000    7.586382    14.305019    L1
Au    1.460000    2.528794    14.305019    L1
Au    10.220000    2.528794    14.305019    L1
Au    4.380000    2.528794    14.305019    L1
Au    7.300000    2.528794    14.305019    L1
Au    2.920000    5.057588    14.305019    L1
Au    11.680000    5.057588    14.305019    L1
Au    5.840000    5.057588    14.305019    L1
Au    8.760000    5.057588    14.305019    L1
Au    1.460000    0.842931    16.689190    L1
Au    10.220000    0.842931    16.689190    L1
Au    5.840000    8.429314    16.689190    L1
Au    14.600000    8.429314    16.689190    L1
Au    4.380000    0.842931    16.689190    L1
Au    8.760000    8.429314    16.689190    L1
Au    7.300000    0.842931    16.689190    L1
Au    11.680000    8.429314    16.689190    L1
Au    2.920000    3.371726    16.689190    L1
Au    11.680000    3.371726    16.689190    L1
Au    5.840000    3.371726    16.689190    L1
Au    8.760000    3.371726    16.689190    L1
Au    4.380000    5.900520    16.689190    L1
Au    13.140000    5.900520    16.689190    L1
Au    7.300000    5.900520    16.689190    L1
Au    10.220000    5.900520    16.689190    L1
Au    8.760000    1.685863    19.073360    L1
Au    13.140000    9.272245    19.073360    L1
Au    2.920000    1.685863    19.073360    L1
Au    11.680000    1.685863    19.073360    L1
Au    7.300000    9.272245    19.073360    L1
Au    16.059999    9.272245    19.073360    L1
Au    5.840000    1.685863    19.073360    L1
Au    10.220000    9.272245    19.073360    L1
Au    10.220000    4.214657    19.073360    L1
Au    4.380000    4.214657    19.073360    L1
Au    13.140000    4.214657    19.073360    L1
Au    7.300000    4.214657    19.073360    L1
Au    11.680000    6.743451    19.073360    L1
Au    5.840000    6.743451    19.073360    L1
Au    14.600000    6.743451    19.073360    L1
Au    8.760000    6.743451    19.073360    L1
Au    0.0000000000    0.0000000000    21.457530064    L0
Au    8.7600000000    0.0000000000    21.457530064    L0
Au    4.3800000000    7.5863820000    21.457530064    L0
Au    13.1400000000    7.5863820000    21.457530064    L0
Au    2.9200000000    0.0000000000    21.457530064    L0
Au    7.3000000000    7.5863820000    21.457530064    L0
Au    5.8400000000    0.0000000000    21.457530064    L0
Au    10.2200000000    7.5863820000    21.457530064    L0
Au    1.4600000000    2.5287940000    21.457530064    L0
Au    10.2200000000    2.5287940000    21.457530064    L0
Au    4.3800000000    2.5287940000    21.457530064    L0
Au    7.3000000000    2.5287940000    21.457530064    L0
Au    2.9200000000    5.0575880000    21.457530064    L0
Au    11.6800000000    5.0575880000    21.457530064    L0
Au    5.8400000000    5.0575880000    21.457530064    L0
Au    8.7600000000    5.0575880000    21.457530064    L0
Au    1.4600000000    0.8429310000    23.841700064    L0
Au    10.2200000000    0.8429310000    23.841700064    L0
Au    5.8400000000    8.4293140000    23.841700064    L0
Au    14.6000000000    8.4293140000    23.841700064    L0
Au    4.3800000000    0.8429310000    23.841700064    L0
Au    8.7600000000    8.4293140000    23.841700064    L0
Au    7.3000000000    0.8429310000    23.841700064    L0
Au    11.6800000000    8.4293140000    23.841700064    L0
Au    2.9200000000    3.3717260000    23.841700064    L0
Au    11.6800000000    3.3717260000    23.841700064    L0
Au    5.8400000000    3.3717260000    23.841700064    L0
Au    8.7600000000    3.3717260000    23.841700064    L0
Au    4.3800000000    5.9005200000    23.841700064    L0
Au    13.1400000000    5.9005200000    23.841700064    L0
Au    7.3000000000    5.9005200000    23.841700064    L0
Au    10.2200000000    5.9005200000    23.841700064    L0
Au    8.7600000000    1.6858630000    26.225870064    L0
Au    13.1400000000    9.2722450000    26.225870064    L0
Au    2.9200000000    1.6858630000    26.225870064    L0
Au    11.6800000000    1.6858630000    26.225870064    L0
Au    7.3000000000    9.2722450000    26.225870064    L0
Au    16.0599990000    9.2722450000    26.225870064    L0
Au    5.8400000000    1.6858630000    26.225870064    L0
Au    10.2200000000    9.2722450000    26.225870064    L0
Au    10.2200000000    4.2146570000    26.225870064    L0
Au    4.3800000000    4.2146570000    26.225870064    L0
Au    13.1400000000    4.2146570000    26.225870064    L0
Au    7.3000000000    4.2146570000    26.225870064    L0
Au    11.6800000000    6.7434510000    26.225870064    L0
Au    5.8400000000    6.7434510000    26.225870064    L0
Au    14.6000000000    6.7434510000    26.225870064    L0
Au    8.7600000000    6.7434510000    26.225870064    L0
C    8.9743133916    7.0766641695    40.9246262917    S
C    8.8301773065    5.6841839649    40.824616111    S
C    8.8994094017    5.0633107012    39.5791317031    S
C    9.1056150018    5.8036316135    38.3963581091    S
C    9.2142077731    7.8259671879    39.7554232023    S
C    9.2739678570    7.1965380510    38.5192730909    S
C    9.1200928414    5.1661227800    37.0619854731    S
C    9.6693067946    3.8888912138    36.8474348217    S
C    9.6666803032    3.3110349845    35.577203689    S
C    9.1112246311    3.9741588365    34.4702563358    S
C    8.5776271756    5.8359651980    35.9473343322    S
C    8.5723708442    5.2535469875    34.6833020758    S
C    8.9785058665    3.2564043227    33.127243324700004    S
C    9.2346046302    4.1476169969    31.9095145022    S
C    8.4581573377    4.0514923403    30.745710183699998    S
C    8.7079006332    4.8621796993    29.6388047812    S
C    9.7724962052    5.7755917875    29.6526599818    S
C    10.3161818690    5.0448111534    31.905402538700002    S
C    10.5960184979    5.8376321816    30.795089228800002    S
H    8.6435633058    5.0901711185    41.7218871277    S
H    8.7507467003    3.9842447785    39.519655240199995    S
S    8.8132927462    8.0450861050    42.4020596314    S
H    9.3505294297    8.9051280108    39.8269426728    S
H    9.4759713399    7.7956560200    37.6308006891    S
H    8.1242014205    6.8188535415    36.0817829759    S
H    10.1323161275    3.3544367269    37.6783193001    S
H    10.1183394288    2.3260794575    35.441095601    S
H    8.1403179339    5.8034257918    33.8459255796    S
H    10.9508090317    5.1307186020    32.7890602672    S
H    7.6437204793    3.3283961754    30.7140760344    S
H    8.0595002360    4.7984275170    28.7625968224    S
S    10.0550403663    7.0036900732    28.4009174149    S
H    11.4409898492    6.5263851059    30.8152395507    S
N    7.7028777263    2.5105144836    33.0076579155    S
H    9.7601207530    2.4757474517    33.1029052794    S
C    6.4911362088    3.2927986491    33.2480537946    S
C    7.6844823789    1.2616272208    33.7609841332    S
H    8.5593695217    0.6511307688    33.495559856599996    S
H    6.7820605943    0.6955995399    33.4885761026    S
H    7.6755385351    1.4015739020    34.862011922600004    S
H    6.5048908354    4.2128303783    32.649157789200004    S
H    6.3465162284    3.5747477977    34.309750356    S
H    5.6221748520    2.6983857162    32.930971488    S
Au    0.0000000000    0.0000000000    44.5253323271    R0
Au    8.7600000000    0.0000000000    44.5253323271    R0
Au    4.3800000000    7.5863820000    44.5253323271    R0
Au    13.1400000000    7.5863820000    44.5253323271    R0
Au    2.9200000000    0.0000000000    44.5253323271    R0
Au    7.3000000000    7.5863820000    44.5253323271    R0
Au    5.8400000000    0.0000000000    44.5253323271    R0
Au    10.2200000000    7.5863820000    44.5253323271    R0
Au    1.4600000000    2.5287940000    44.5253323271    R0
Au    10.2200000000    2.5287940000    44.5253323271    R0
Au    4.3800000000    2.5287940000    44.5253323271    R0
Au    7.3000000000    2.5287940000    44.5253323271    R0
Au    2.9200000000    5.0575880000    44.5253323271    R0
Au    11.6800000000    5.0575880000    44.5253323271    R0
Au    5.8400000000    5.0575880000    44.5253323271    R0
Au    8.7600000000    5.0575880000    44.5253323271    R0
Au    1.4600000000    0.8429310000    46.9095023271    R0
Au    10.2200000000    0.8429310000    46.9095023271    R0
Au    5.8400000000    8.4293140000    46.9095023271    R0
Au    14.6000000000    8.4293140000    46.9095023271    R0
Au    4.3800000000    0.8429310000    46.9095023271    R0
Au    8.7600000000    8.4293140000    46.9095023271    R0
Au    7.3000000000    0.8429310000    46.9095023271    R0
Au    11.6800000000    8.4293140000    46.9095023271    R0
Au    2.9200000000    3.3717260000    46.9095023271    R0
Au    11.6800000000    3.3717260000    46.9095023271    R0
Au    5.8400000000    3.3717260000    46.9095023271    R0
Au    8.7600000000    3.3717260000    46.9095023271    R0
Au    4.3800000000    5.9005200000    46.9095023271    R0
Au    13.1400000000    5.9005200000    46.9095023271    R0
Au    7.3000000000    5.9005200000    46.9095023271    R0
Au    10.2200000000    5.9005200000    46.9095023271    R0
Au    8.7600000000    1.6858630000    49.2936723271    R0
Au    13.1400000000    9.2722450000    49.2936723271    R0
Au    2.9200000000    1.6858630000    49.2936723271    R0
Au    11.6800000000    1.6858630000    49.2936723271    R0
Au    7.3000000000    9.2722450000    49.2936723271    R0
Au    16.0599990000    9.2722450000    49.2936723271    R0
Au    5.8400000000    1.6858630000    49.2936723271    R0
Au    10.2200000000    9.2722450000    49.2936723271    R0
Au    10.2200000000    4.2146570000    49.2936723271    R0
Au    4.3800000000    4.2146570000    49.2936723271    R0
Au    13.1400000000    4.2146570000    49.2936723271    R0
Au    7.3000000000    4.2146570000    49.2936723271    R0
Au    11.6800000000    6.7434510000    49.2936723271    R0
Au    5.8400000000    6.7434510000    49.2936723271    R0
Au    14.6000000000    6.7434510000    49.2936723271    R0
Au    8.7600000000    6.7434510000    49.2936723271    R0
Au    0.000000    0.000000    51.6778423991    R1
Au    8.760000    0.000000    51.6778423991    R1
Au    4.380000    7.586382    51.6778423991    R1
Au    13.140000    7.586382    51.6778423991    R1
Au    2.920000    0.000000    51.6778423991    R1
Au    7.300000    7.586382    51.6778423991    R1
Au    5.840000    0.000000    51.6778423991    R1
Au    10.220000    7.586382    51.6778423991    R1
Au    1.460000    2.528794    51.6778423991    R1
Au    10.220000    2.528794    51.6778423991    R1
Au    4.380000    2.528794    51.6778423991    R1
Au    7.300000    2.528794    51.6778423991    R1
Au    2.920000    5.057588    51.6778423991    R1
Au    11.680000    5.057588    51.6778423991    R1
Au    5.840000    5.057588    51.6778423991    R1
Au    8.760000    5.057588    51.6778423991    R1
Au    1.460000    0.842931    54.0620123991    R1
Au    10.220000    0.842931    54.0620123991    R1
Au    5.840000    8.429314    54.0620123991    R1
Au    14.600000    8.429314    54.0620123991    R1
Au    4.380000    0.842931    54.0620123991    R1
Au    8.760000    8.429314    54.0620123991    R1
Au    7.300000    0.842931    54.0620123991    R1
Au    11.680000    8.429314    54.0620123991    R1
Au    2.920000    3.371726    54.0620123991    R1
Au    11.680000    3.371726    54.0620123991    R1
Au    5.840000    3.371726    54.0620123991    R1
Au    8.760000    3.371726    54.0620123991    R1
Au    4.380000    5.900520    54.0620123991    R1
Au    13.140000    5.900520    54.0620123991    R1
Au    7.300000    5.900520    54.0620123991    R1
Au    10.220000    5.900520    54.0620123991    R1
Au    8.760000    1.685863    56.4461823991    R1
Au    13.140000    9.272245    56.4461823991    R1
Au    2.920000    1.685863    56.4461823991    R1
Au    11.680000    1.685863    56.4461823991    R1
Au    7.300000    9.272245    56.4461823991    R1
Au    16.059999    9.272245    56.4461823991    R1
Au    5.840000    1.685863    56.4461823991    R1
Au    10.220000    9.272245    56.4461823991    R1
Au    10.220000    4.214657    56.4461823991    R1
Au    4.380000    4.214657    56.4461823991    R1
Au    13.140000    4.214657    56.4461823991    R1
Au    7.300000    4.214657    56.4461823991    R1
Au    11.680000    6.743451    56.4461823991    R1
Au    5.840000    6.743451    56.4461823991    R1
Au    14.600000    6.743451    56.4461823991    R1
Au    8.760000    6.743451    56.4461823991    R1
Au    0.000000    0.000000    58.8303513991    R2
Au    8.760000    0.000000    58.8303513991    R2
Au    4.380000    7.586382    58.8303513991    R2
Au    13.140000    7.586382    58.8303513991    R2
Au    2.920000    0.000000    58.8303513991    R2
Au    7.300000    7.586382    58.8303513991    R2
Au    5.840000    0.000000    58.8303513991    R2
Au    10.220000    7.586382    58.8303513991    R2
Au    1.460000    2.528794    58.8303513991    R2
Au    10.220000    2.528794    58.8303513991    R2
Au    4.380000    2.528794    58.8303513991    R2
Au    7.300000    2.528794    58.8303513991    R2
Au    2.920000    5.057588    58.8303513991    R2
Au    11.680000    5.057588    58.8303513991    R2
Au    5.840000    5.057588    58.8303513991    R2
Au    8.760000    5.057588    58.8303513991    R2
Au    1.460000    0.842931    61.214522399100005    R2
Au    10.220000    0.842931    61.214522399100005    R2
Au    5.840000    8.429314    61.214522399100005    R2
Au    14.600000    8.429314    61.214522399100005    R2
Au    4.380000    0.842931    61.214522399100005    R2
Au    8.760000    8.429314    61.214522399100005    R2
Au    7.300000    0.842931    61.214522399100005    R2
Au    11.680000    8.429314    61.214522399100005    R2
Au    2.920000    3.371726    61.214522399100005    R2
Au    11.680000    3.371726    61.214522399100005    R2
Au    5.840000    3.371726    61.214522399100005    R2
Au    8.760000    3.371726    61.214522399100005    R2
Au    4.380000    5.900520    61.214522399100005    R2
Au    13.140000    5.900520    61.214522399100005    R2
Au    7.300000    5.900520    61.214522399100005    R2
Au    10.220000    5.900520    61.214522399100005    R2
Au    8.760000    1.685863    63.5986923991    R2
Au    13.140000    9.272245    63.5986923991    R2
Au    2.920000    1.685863    63.5986923991    R2
Au    11.680000    1.685863    63.5986923991    R2
Au    7.300000    9.272245    63.5986923991    R2
Au    16.059999    9.272245    63.5986923991    R2
Au    5.840000    1.685863    63.5986923991    R2
Au    10.220000    9.272245    63.5986923991    R2
Au    10.220000    4.214657    63.5986923991    R2
Au    4.380000    4.214657    63.5986923991    R2
Au    13.140000    4.214657    63.5986923991    R2
Au    7.300000    4.214657    63.5986923991    R2
Au    11.680000    6.743451    63.5986923991    R2
Au    5.840000    6.743451    63.5986923991    R2
Au    14.600000    6.743451    63.5986923991    R2
Au    8.760000    6.743451    63.5986923991    R2
Au    0.000000    0.000000    65.9828613991    R3
Au    8.760000    0.000000    65.9828613991    R3
Au    4.380000    7.586382    65.9828613991    R3
Au    13.140000    7.586382    65.9828613991    R3
Au    2.920000    0.000000    65.9828613991    R3
Au    7.300000    7.586382    65.9828613991    R3
Au    5.840000    0.000000    65.9828613991    R3
Au    10.220000    7.586382    65.9828613991    R3
Au    1.460000    2.528794    65.9828613991    R3
Au    10.220000    2.528794    65.9828613991    R3
Au    4.380000    2.528794    65.9828613991    R3
Au    7.300000    2.528794    65.9828613991    R3
Au    2.920000    5.057588    65.9828613991    R3
Au    11.680000    5.057588    65.9828613991    R3
Au    5.840000    5.057588    65.9828613991    R3
Au    8.760000    5.057588    65.9828613991    R3
Au    1.460000    0.842931    68.3670323991    R3
Au    10.220000    0.842931    68.3670323991    R3
Au    5.840000    8.429314    68.3670323991    R3
Au    14.600000    8.429314    68.3670323991    R3
Au    4.380000    0.842931    68.3670323991    R3
Au    8.760000    8.429314    68.3670323991    R3
Au    7.300000    0.842931    68.3670323991    R3
Au    11.680000    8.429314    68.3670323991    R3
Au    2.920000    3.371726    68.3670323991    R3
Au    11.680000    3.371726    68.3670323991    R3
Au    5.840000    3.371726    68.3670323991    R3
Au    8.760000    3.371726    68.3670323991    R3
Au    4.380000    5.900520    68.3670323991    R3
Au    13.140000    5.900520    68.3670323991    R3
Au    7.300000    5.900520    68.3670323991    R3
Au    10.220000    5.900520    68.3670323991    R3
Au    8.760000    1.685863    70.75120239910001    R3
Au    13.140000    9.272245    70.75120239910001    R3
Au    2.920000    1.685863    70.75120239910001    R3
Au    11.680000    1.685863    70.75120239910001    R3
Au    7.300000    9.272245    70.75120239910001    R3
Au    16.059999    9.272245    70.75120239910001    R3
Au    5.840000    1.685863    70.75120239910001    R3
Au    10.220000    9.272245    70.75120239910001    R3
Au    10.220000    4.214657    70.75120239910001    R3
Au    4.380000    4.214657    70.75120239910001    R3
Au    13.140000    4.214657    70.75120239910001    R3
Au    7.300000    4.214657    70.75120239910001    R3
Au    11.680000    6.743451    70.75120239910001    R3
Au    5.840000    6.743451    70.75120239910001    R3
Au    14.600000    6.743451    70.75120239910001    R3
Au    8.760000    6.743451    70.75120239910001    R3
