     128
 i =      315, E =     -3328.8888617961
 Au         0.0000000000        0.0000000000        0.0000000000
 Au         8.7600000000        0.0000000000        0.0000000000
 Au         4.3800000000        7.5863820000        0.0000000000
 Au        13.1400000000        7.5863820000        0.0000000000
 Au         2.9200000000        0.0000000000        0.0000000000
 Au         7.3000000000        7.5863820000        0.0000000000
 Au         5.8400000000        0.0000000000        0.0000000000
 Au        10.2200000000        7.5863820000        0.0000000000
 Au         1.4600000000        2.5287940000        0.0000000000
 Au        10.2200000000        2.5287940000        0.0000000000
 Au         4.3800000000        2.5287940000        0.0000000000
 Au         7.3000000000        2.5287940000        0.0000000000
 Au         2.9200000000        5.0575880000        0.0000000000
 Au        11.6800000000        5.0575880000        0.0000000000
 Au         5.8400000000        5.0575880000        0.0000000000
 Au         8.7600000000        5.0575880000        0.0000000000
 Au         1.4600000000        0.8429310000        2.3841700000
 Au        10.2200000000        0.8429310000        2.3841700000
 Au         5.8400000000        8.4293140000        2.3841700000
 Au        14.6000000000        8.4293140000        2.3841700000
 Au         4.3800000000        0.8429310000        2.3841700000
 Au         8.7600000000        8.4293140000        2.3841700000
 Au         7.3000000000        0.8429310000        2.3841700000
 Au        11.6800000000        8.4293140000        2.3841700000
 Au         2.9200000000        3.3717260000        2.3841700000
 Au        11.6800000000        3.3717260000        2.3841700000
 Au         5.8400000000        3.3717260000        2.3841700000
 Au         8.7600000000        3.3717260000        2.3841700000
 Au         4.3800000000        5.9005200000        2.3841700000
 Au        13.1400000000        5.9005200000        2.3841700000
 Au         7.3000000000        5.9005200000        2.3841700000
 Au        10.2200000000        5.9005200000        2.3841700000
 Au         8.7600000000        1.6858630000        4.7683400000
 Au        13.1400000000        9.2722450000        4.7683400000
 Au         2.9200000000        1.6858630000        4.7683400000
 Au        11.6800000000        1.6858630000        4.7683400000
 Au         7.3000000000        9.2722450000        4.7683400000
 Au        16.0599990000        9.2722450000        4.7683400000
 Au         5.8400000000        1.6858630000        4.7683400000
 Au        10.2200000000        9.2722450000        4.7683400000
 Au        10.2200000000        4.2146570000        4.7683400000
 Au         4.3800000000        4.2146570000        4.7683400000
 Au        13.1400000000        4.2146570000        4.7683400000
 Au         7.3000000000        4.2146570000        4.7683400000
 Au        11.6800000000        6.7434510000        4.7683400000
 Au         5.8400000000        6.7434510000        4.7683400000
 Au        14.6000000000        6.7434510000        4.7683400000
 Au         8.7600000000        6.7434510000        4.7683400000
  C         8.1776558489        5.6318146667       15.9554677853
  C         7.3676896226        6.3490152139       15.0513806008
  C         7.1542601017        5.8636567913       13.7629788006
  C         7.7292264305        4.6544738402       13.3356418773
  C         8.7482776444        4.4165353995       15.5396473634
  C         8.5250171757        3.9415819944       14.2454962552
  C         7.9619617058        4.8740836155       10.7452154262
  H         6.5195698517        6.4348157822       13.0820351778
  S         8.5930657451        6.3916608448       17.5093118060
  H         9.3700538493        3.8456983195       16.2294489261
  H         8.9669482355        2.9897523542       13.9500759294
  H         6.9104585084        7.2879434649       15.3633456213
  C         9.1542487473        5.6079800938       10.7993892810
  C         9.6662263180        6.2269039750        9.6576209560
  C         8.9865040925        6.1409028150        8.4228961058
  C         7.7840276120        5.4128451793        8.3693912001
  C         7.2892817342        4.7919823647        9.5127618181
  H        10.5974062254        6.7906499148        9.7201912245
  H         9.6949401335        5.6997703121       11.7426399946
  H         7.2334465484        5.3436358839        7.4299172466
  H         6.3587763236        4.2244405018        9.4443125740
  S         9.6844208840        7.0588079366        7.0772155460
  C         7.3888520667        4.1135134507       11.9424955893
  N         7.6975292482        2.6761638630       11.8210137601
  H         6.2912345337        4.1785985432       11.8487148724
  C         6.9351937897        1.6510183340       12.3600713089
  C         7.6429299345        0.4966590787       12.1230155115
  C         8.8279728225        2.0893391005       11.2986592734
  N         8.8224945672        0.7746967297       11.4597848425
  H         5.9885010922        1.8443847642       12.8515304155
  H         7.3669957866       -0.5198377565       12.3871312921
  H         9.5980362360        2.6673232658       10.7995402153
 Au         0.0000000000        0.0000000000       19.7039800000
 Au         8.7600000000        0.0000000000       19.7039800000
 Au         4.3800000000        7.5863820000       19.7039800000
 Au        13.1400000000        7.5863820000       19.7039800000
 Au         2.9200000000        0.0000000000       19.7039800000
 Au         7.3000000000        7.5863820000       19.7039800000
 Au         5.8400000000        0.0000000000       19.7039800000
 Au        10.2200000000        7.5863820000       19.7039800000
 Au         1.4600000000        2.5287940000       19.7039800000
 Au        10.2200000000        2.5287940000       19.7039800000
 Au         4.3800000000        2.5287940000       19.7039800000
 Au         7.3000000000        2.5287940000       19.7039800000
 Au         2.9200000000        5.0575880000       19.7039800000
 Au        11.6800000000        5.0575880000       19.7039800000
 Au         5.8400000000        5.0575880000       19.7039800000
 Au         8.7600000000        5.0575880000       19.7039800000
 Au         1.4600000000        0.8429310000       22.0881500000
 Au        10.2200000000        0.8429310000       22.0881500000
 Au         5.8400000000        8.4293140000       22.0881500000
 Au        14.6000000000        8.4293140000       22.0881500000
 Au         4.3800000000        0.8429310000       22.0881500000
 Au         8.7600000000        8.4293140000       22.0881500000
 Au         7.3000000000        0.8429310000       22.0881500000
 Au        11.6800000000        8.4293140000       22.0881500000
 Au         2.9200000000        3.3717260000       22.0881500000
 Au        11.6800000000        3.3717260000       22.0881500000
 Au         5.8400000000        3.3717260000       22.0881500000
 Au         8.7600000000        3.3717260000       22.0881500000
 Au         4.3800000000        5.9005200000       22.0881500000
 Au        13.1400000000        5.9005200000       22.0881500000
 Au         7.3000000000        5.9005200000       22.0881500000
 Au        10.2200000000        5.9005200000       22.0881500000
 Au         8.7600000000        1.6858630000       24.4723200000
 Au        13.1400000000        9.2722450000       24.4723200000
 Au         2.9200000000        1.6858630000       24.4723200000
 Au        11.6800000000        1.6858630000       24.4723200000
 Au         7.3000000000        9.2722450000       24.4723200000
 Au        16.0599990000        9.2722450000       24.4723200000
 Au         5.8400000000        1.6858630000       24.4723200000
 Au        10.2200000000        9.2722450000       24.4723200000
 Au        10.2200000000        4.2146570000       24.4723200000
 Au         4.3800000000        4.2146570000       24.4723200000
 Au        13.1400000000        4.2146570000       24.4723200000
 Au         7.3000000000        4.2146570000       24.4723200000
 Au        11.6800000000        6.7434510000       24.4723200000
 Au         5.8400000000        6.7434510000       24.4723200000
 Au        14.6000000000        6.7434510000       24.4723200000
 Au         8.7600000000        6.7434510000       24.4723200000
 Au    0.000000    0.000000    51.6778423991    R1
Au    8.760000    0.000000    51.6778423991    R1
Au    4.380000    7.586382    51.6778423991    R1
Au    13.140000    7.586382    51.6778423991    R1
Au    2.920000    0.000000    51.6778423991    R1
Au    7.300000    7.586382    51.6778423991    R1
Au    5.840000    0.000000    51.6778423991    R1
Au    10.220000    7.586382    51.6778423991    R1
Au    1.460000    2.528794    51.6778423991    R1
Au    10.220000    2.528794    51.6778423991    R1
Au    4.380000    2.528794    51.6778423991    R1
Au    7.300000    2.528794    51.6778423991    R1
Au    2.920000    5.057588    51.6778423991    R1
Au    11.680000    5.057588    51.6778423991    R1
Au    5.840000    5.057588    51.6778423991    R1
Au    8.760000    5.057588    51.6778423991    R1
Au    1.460000    0.842931    54.0620123991    R1
Au    10.220000    0.842931    54.0620123991    R1
Au    5.840000    8.429314    54.0620123991    R1
Au    14.600000    8.429314    54.0620123991    R1
Au    4.380000    0.842931    54.0620123991    R1
Au    8.760000    8.429314    54.0620123991    R1
Au    7.300000    0.842931    54.0620123991    R1
Au    11.680000    8.429314    54.0620123991    R1
Au    2.920000    3.371726    54.0620123991    R1
Au    11.680000    3.371726    54.0620123991    R1
Au    5.840000    3.371726    54.0620123991    R1
Au    8.760000    3.371726    54.0620123991    R1
Au    4.380000    5.900520    54.0620123991    R1
Au    13.140000    5.900520    54.0620123991    R1
Au    7.300000    5.900520    54.0620123991    R1
Au    10.220000    5.900520    54.0620123991    R1
Au    8.760000    1.685863    56.4461823991    R1
Au    13.140000    9.272245    56.4461823991    R1
Au    2.920000    1.685863    56.4461823991    R1
Au    11.680000    1.685863    56.4461823991    R1
Au    7.300000    9.272245    56.4461823991    R1
Au    16.059999    9.272245    56.4461823991    R1
Au    5.840000    1.685863    56.4461823991    R1
Au    10.220000    9.272245    56.4461823991    R1
Au    10.220000    4.214657    56.4461823991    R1
Au    4.380000    4.214657    56.4461823991    R1
Au    13.140000    4.214657    56.4461823991    R1
Au    7.300000    4.214657    56.4461823991    R1
Au    11.680000    6.743451    56.4461823991    R1
Au    5.840000    6.743451    56.4461823991    R1
Au    14.600000    6.743451    56.4461823991    R1
Au    8.760000    6.743451    56.4461823991    R1
Au    0.000000    0.000000    58.8303513991    R2
Au    8.760000    0.000000    58.8303513991    R2
Au    4.380000    7.586382    58.8303513991    R2
Au    13.140000    7.586382    58.8303513991    R2
Au    2.920000    0.000000    58.8303513991    R2
Au    7.300000    7.586382    58.8303513991    R2
Au    5.840000    0.000000    58.8303513991    R2
Au    10.220000    7.586382    58.8303513991    R2
Au    1.460000    2.528794    58.8303513991    R2
Au    10.220000    2.528794    58.8303513991    R2
Au    4.380000    2.528794    58.8303513991    R2
Au    7.300000    2.528794    58.8303513991    R2
Au    2.920000    5.057588    58.8303513991    R2
Au    11.680000    5.057588    58.8303513991    R2
Au    5.840000    5.057588    58.8303513991    R2
Au    8.760000    5.057588    58.8303513991    R2
Au    1.460000    0.842931    61.214522399100005    R2
Au    10.220000    0.842931    61.214522399100005    R2
Au    5.840000    8.429314    61.214522399100005    R2
Au    14.600000    8.429314    61.214522399100005    R2
Au    4.380000    0.842931    61.214522399100005    R2
Au    8.760000    8.429314    61.214522399100005    R2
Au    7.300000    0.842931    61.214522399100005    R2
Au    11.680000    8.429314    61.214522399100005    R2
Au    2.920000    3.371726    61.214522399100005    R2
Au    11.680000    3.371726    61.214522399100005    R2
Au    5.840000    3.371726    61.214522399100005    R2
Au    8.760000    3.371726    61.214522399100005    R2
Au    4.380000    5.900520    61.214522399100005    R2
Au    13.140000    5.900520    61.214522399100005    R2
Au    7.300000    5.900520    61.214522399100005    R2
Au    10.220000    5.900520    61.214522399100005    R2
Au    8.760000    1.685863    63.5986923991    R2
Au    13.140000    9.272245    63.5986923991    R2
Au    2.920000    1.685863    63.5986923991    R2
Au    11.680000    1.685863    63.5986923991    R2
Au    7.300000    9.272245    63.5986923991    R2
Au    16.059999    9.272245    63.5986923991    R2
Au    5.840000    1.685863    63.5986923991    R2
Au    10.220000    9.272245    63.5986923991    R2
Au    10.220000    4.214657    63.5986923991    R2
Au    4.380000    4.214657    63.5986923991    R2
Au    13.140000    4.214657    63.5986923991    R2
Au    7.300000    4.214657    63.5986923991    R2
Au    11.680000    6.743451    63.5986923991    R2
Au    5.840000    6.743451    63.5986923991    R2
Au    14.600000    6.743451    63.5986923991    R2
Au    8.760000    6.743451    63.5986923991    R2
Au    0.000000    0.000000    65.9828613991    R3
Au    8.760000    0.000000    65.9828613991    R3
Au    4.380000    7.586382    65.9828613991    R3
Au    13.140000    7.586382    65.9828613991    R3
Au    2.920000    0.000000    65.9828613991    R3
Au    7.300000    7.586382    65.9828613991    R3
Au    5.840000    0.000000    65.9828613991    R3
Au    10.220000    7.586382    65.9828613991    R3
Au    1.460000    2.528794    65.9828613991    R3
Au    10.220000    2.528794    65.9828613991    R3
Au    4.380000    2.528794    65.9828613991    R3
Au    7.300000    2.528794    65.9828613991    R3
Au    2.920000    5.057588    65.9828613991    R3
Au    11.680000    5.057588    65.9828613991    R3
Au    5.840000    5.057588    65.9828613991    R3
Au    8.760000    5.057588    65.9828613991    R3
Au    1.460000    0.842931    68.3670323991    R3
Au    10.220000    0.842931    68.3670323991    R3
Au    5.840000    8.429314    68.3670323991    R3
Au    14.600000    8.429314    68.3670323991    R3
Au    4.380000    0.842931    68.3670323991    R3
Au    8.760000    8.429314    68.3670323991    R3
Au    7.300000    0.842931    68.3670323991    R3
Au    11.680000    8.429314    68.3670323991    R3
Au    2.920000    3.371726    68.3670323991    R3
Au    11.680000    3.371726    68.3670323991    R3
Au    5.840000    3.371726    68.3670323991    R3
Au    8.760000    3.371726    68.3670323991    R3
Au    4.380000    5.900520    68.3670323991    R3
Au    13.140000    5.900520    68.3670323991    R3
Au    7.300000    5.900520    68.3670323991    R3
Au    10.220000    5.900520    68.3670323991    R3
Au    8.760000    1.685863    70.75120239910001    R3
Au    13.140000    9.272245    70.75120239910001    R3
Au    2.920000    1.685863    70.75120239910001    R3
Au    11.680000    1.685863    70.75120239910001    R3
Au    7.300000    9.272245    70.75120239910001    R3
Au    16.059999    9.272245    70.75120239910001    R3
Au    5.840000    1.685863    70.75120239910001    R3
Au    10.220000    9.272245    70.75120239910001    R3
Au    10.220000    4.214657    70.75120239910001    R3
Au    4.380000    4.214657    70.75120239910001    R3
Au    13.140000    4.214657    70.75120239910001    R3
Au    7.300000    4.214657    70.75120239910001    R3
Au    11.680000    6.743451    70.75120239910001    R3
Au    5.840000    6.743451    70.75120239910001    R3
Au    14.600000    6.743451    70.75120239910001    R3
Au    8.760000    6.743451    70.75120239910001    R3
