   416
 i =       82, E =     -3365.3998523447
 Au    0.000000    0.000000    0.000000    L3
Au    8.760000    0.000000    0.000000    L3
Au    4.380000    7.586382    0.000000    L3
Au    13.140000    7.586382    0.000000    L3
Au    2.920000    0.000000    0.000000    L3
Au    7.300000    7.586382    0.000000    L3
Au    5.840000    0.000000    0.000000    L3
Au    10.220000    7.586382    0.000000    L3
Au    1.460000    2.528794    0.000000    L3
Au    10.220000    2.528794    0.000000    L3
Au    4.380000    2.528794    0.000000    L3
Au    7.300000    2.528794    0.000000    L3
Au    2.920000    5.057588    0.000000    L3
Au    11.680000    5.057588    0.000000    L3
Au    5.840000    5.057588    0.000000    L3
Au    8.760000    5.057588    0.000000    L3
Au    1.460000    0.842931    2.384170    L3
Au    10.220000    0.842931    2.384170    L3
Au    5.840000    8.429314    2.384170    L3
Au    14.600000    8.429314    2.384170    L3
Au    4.380000    0.842931    2.384170    L3
Au    8.760000    8.429314    2.384170    L3
Au    7.300000    0.842931    2.384170    L3
Au    11.680000    8.429314    2.384170    L3
Au    2.920000    3.371726    2.384170    L3
Au    11.680000    3.371726    2.384170    L3
Au    5.840000    3.371726    2.384170    L3
Au    8.760000    3.371726    2.384170    L3
Au    4.380000    5.900520    2.384170    L3
Au    13.140000    5.900520    2.384170    L3
Au    7.300000    5.900520    2.384170    L3
Au    10.220000    5.900520    2.384170    L3
Au    8.760000    1.685863    4.768340    L3
Au    13.140000    9.272245    4.768340    L3
Au    2.920000    1.685863    4.768340    L3
Au    11.680000    1.685863    4.768340    L3
Au    7.300000    9.272245    4.768340    L3
Au    16.059999    9.272245    4.768340    L3
Au    5.840000    1.685863    4.768340    L3
Au    10.220000    9.272245    4.768340    L3
Au    10.220000    4.214657    4.768340    L3
Au    4.380000    4.214657    4.768340    L3
Au    13.140000    4.214657    4.768340    L3
Au    7.300000    4.214657    4.768340    L3
Au    11.680000    6.743451    4.768340    L3
Au    5.840000    6.743451    4.768340    L3
Au    14.600000    6.743451    4.768340    L3
Au    8.760000    6.743451    4.768340    L3
Au    0.000000    0.000000    7.152510    L2
Au    8.760000    0.000000    7.152510    L2
Au    4.380000    7.586382    7.152510    L2
Au    13.140000    7.586382    7.152510    L2
Au    2.920000    0.000000    7.152510    L2
Au    7.300000    7.586382    7.152510    L2
Au    5.840000    0.000000    7.152510    L2
Au    10.220000    7.586382    7.152510    L2
Au    1.460000    2.528794    7.152510    L2
Au    10.220000    2.528794    7.152510    L2
Au    4.380000    2.528794    7.152510    L2
Au    7.300000    2.528794    7.152510    L2
Au    2.920000    5.057588    7.152510    L2
Au    11.680000    5.057588    7.152510    L2
Au    5.840000    5.057588    7.152510    L2
Au    8.760000    5.057588    7.152510    L2
Au    1.460000    0.842931    9.536680    L2
Au    10.220000    0.842931    9.536680    L2
Au    5.840000    8.429314    9.536680    L2
Au    14.600000    8.429314    9.536680    L2
Au    4.380000    0.842931    9.536680    L2
Au    8.760000    8.429314    9.536680    L2
Au    7.300000    0.842931    9.536680    L2
Au    11.680000    8.429314    9.536680    L2
Au    2.920000    3.371726    9.536680    L2
Au    11.680000    3.371726    9.536680    L2
Au    5.840000    3.371726    9.536680    L2
Au    8.760000    3.371726    9.536680    L2
Au    4.380000    5.900520    9.536680    L2
Au    13.140000    5.900520    9.536680    L2
Au    7.300000    5.900520    9.536680    L2
Au    10.220000    5.900520    9.536680    L2
Au    8.760000    1.685863    11.920850    L2
Au    13.140000    9.272245    11.920850    L2
Au    2.920000    1.685863    11.920850    L2
Au    11.680000    1.685863    11.920850    L2
Au    7.300000    9.272245    11.920850    L2
Au    16.059999    9.272245    11.920850    L2
Au    5.840000    1.685863    11.920850    L2
Au    10.220000    9.272245    11.920850    L2
Au    10.220000    4.214657    11.920850    L2
Au    4.380000    4.214657    11.920850    L2
Au    13.140000    4.214657    11.920850    L2
Au    7.300000    4.214657    11.920850    L2
Au    11.680000    6.743451    11.920850    L2
Au    5.840000    6.743451    11.920850    L2
Au    14.600000    6.743451    11.920850    L2
Au    8.760000    6.743451    11.920850    L2
Au    0.000000    0.000000    14.305019    L1
Au    8.760000    0.000000    14.305019    L1
Au    4.380000    7.586382    14.305019    L1
Au    13.140000    7.586382    14.305019    L1
Au    2.920000    0.000000    14.305019    L1
Au    7.300000    7.586382    14.305019    L1
Au    5.840000    0.000000    14.305019    L1
Au    10.220000    7.586382    14.305019    L1
Au    1.460000    2.528794    14.305019    L1
Au    10.220000    2.528794    14.305019    L1
Au    4.380000    2.528794    14.305019    L1
Au    7.300000    2.528794    14.305019    L1
Au    2.920000    5.057588    14.305019    L1
Au    11.680000    5.057588    14.305019    L1
Au    5.840000    5.057588    14.305019    L1
Au    8.760000    5.057588    14.305019    L1
Au    1.460000    0.842931    16.689190    L1
Au    10.220000    0.842931    16.689190    L1
Au    5.840000    8.429314    16.689190    L1
Au    14.600000    8.429314    16.689190    L1
Au    4.380000    0.842931    16.689190    L1
Au    8.760000    8.429314    16.689190    L1
Au    7.300000    0.842931    16.689190    L1
Au    11.680000    8.429314    16.689190    L1
Au    2.920000    3.371726    16.689190    L1
Au    11.680000    3.371726    16.689190    L1
Au    5.840000    3.371726    16.689190    L1
Au    8.760000    3.371726    16.689190    L1
Au    4.380000    5.900520    16.689190    L1
Au    13.140000    5.900520    16.689190    L1
Au    7.300000    5.900520    16.689190    L1
Au    10.220000    5.900520    16.689190    L1
Au    8.760000    1.685863    19.073360    L1
Au    13.140000    9.272245    19.073360    L1
Au    2.920000    1.685863    19.073360    L1
Au    11.680000    1.685863    19.073360    L1
Au    7.300000    9.272245    19.073360    L1
Au    16.059999    9.272245    19.073360    L1
Au    5.840000    1.685863    19.073360    L1
Au    10.220000    9.272245    19.073360    L1
Au    10.220000    4.214657    19.073360    L1
Au    4.380000    4.214657    19.073360    L1
Au    13.140000    4.214657    19.073360    L1
Au    7.300000    4.214657    19.073360    L1
Au    11.680000    6.743451    19.073360    L1
Au    5.840000    6.743451    19.073360    L1
Au    14.600000    6.743451    19.073360    L1
Au    8.760000    6.743451    19.073360    L1
Au    0.0000000000    0.0000000000    21.457530064    L0
Au    8.7600000000    0.0000000000    21.457530064    L0
Au    4.3800000000    7.5863820000    21.457530064    L0
Au    13.1400000000    7.5863820000    21.457530064    L0
Au    2.9200000000    0.0000000000    21.457530064    L0
Au    7.3000000000    7.5863820000    21.457530064    L0
Au    5.8400000000    0.0000000000    21.457530064    L0
Au    10.2200000000    7.5863820000    21.457530064    L0
Au    1.4600000000    2.5287940000    21.457530064    L0
Au    10.2200000000    2.5287940000    21.457530064    L0
Au    4.3800000000    2.5287940000    21.457530064    L0
Au    7.3000000000    2.5287940000    21.457530064    L0
Au    2.9200000000    5.0575880000    21.457530064    L0
Au    11.6800000000    5.0575880000    21.457530064    L0
Au    5.8400000000    5.0575880000    21.457530064    L0
Au    8.7600000000    5.0575880000    21.457530064    L0
Au    1.4600000000    0.8429310000    23.841700064    L0
Au    10.2200000000    0.8429310000    23.841700064    L0
Au    5.8400000000    8.4293140000    23.841700064    L0
Au    14.6000000000    8.4293140000    23.841700064    L0
Au    4.3800000000    0.8429310000    23.841700064    L0
Au    8.7600000000    8.4293140000    23.841700064    L0
Au    7.3000000000    0.8429310000    23.841700064    L0
Au    11.6800000000    8.4293140000    23.841700064    L0
Au    2.9200000000    3.3717260000    23.841700064    L0
Au    11.6800000000    3.3717260000    23.841700064    L0
Au    5.8400000000    3.3717260000    23.841700064    L0
Au    8.7600000000    3.3717260000    23.841700064    L0
Au    4.3800000000    5.9005200000    23.841700064    L0
Au    13.1400000000    5.9005200000    23.841700064    L0
Au    7.3000000000    5.9005200000    23.841700064    L0
Au    10.2200000000    5.9005200000    23.841700064    L0
Au    8.7600000000    1.6858630000    26.225870064    L0
Au    13.1400000000    9.2722450000    26.225870064    L0
Au    2.9200000000    1.6858630000    26.225870064    L0
Au    11.6800000000    1.6858630000    26.225870064    L0
Au    7.3000000000    9.2722450000    26.225870064    L0
Au    16.0599990000    9.2722450000    26.225870064    L0
Au    5.8400000000    1.6858630000    26.225870064    L0
Au    10.2200000000    9.2722450000    26.225870064    L0
Au    10.2200000000    4.2146570000    26.225870064    L0
Au    4.3800000000    4.2146570000    26.225870064    L0
Au    13.1400000000    4.2146570000    26.225870064    L0
Au    7.3000000000    4.2146570000    26.225870064    L0
Au    11.6800000000    6.7434510000    26.225870064    L0
Au    5.8400000000    6.7434510000    26.225870064    L0
Au    14.6000000000    6.7434510000    26.225870064    L0
Au    8.7600000000    6.7434510000    26.225870064    L0
C    8.1776558489    5.6318146667    37.4129978493    S
C    7.3676896226    6.3490152139    36.5089106648    S
C    7.1542601017    5.8636567913    35.2205088646    S
C    7.7292264305    4.6544738402    34.7931719413    S
C    8.7482776444    4.4165353995    36.997177427400004    S
C    8.5250171757    3.9415819944    35.7030263192    S
C    7.9619617058    4.8740836155    32.2027454902    S
H    6.5195698517    6.4348157822    34.5395652418    S
S    8.5930657451    6.3916608448    38.966841869999996    S
H    9.3700538493    3.8456983195    37.6869789901    S
H    8.9669482355    2.9897523542    35.4076059934    S
H    6.9104585084    7.2879434649    36.8208756853    S
C    9.1542487473    5.6079800938    32.256919345    S
C    9.6662263180    6.2269039750    31.11515102    S
C    8.9865040925    6.1409028150    29.8804261698    S
C    7.7840276120    5.4128451793    29.8269212641    S
C    7.2892817342    4.7919823647    30.9702918821    S
H    10.5974062254    6.7906499148    31.177721288500003    S
H    9.6949401335    5.6997703121    33.2001700586    S
H    7.2334465484    5.3436358839    28.8874473106    S
H    6.3587763236    4.2244405018    30.901842637999998    S
S    9.6844208840    7.0588079366    28.53474561    S
C    7.3888520667    4.1135134507    33.4000256533    S
N    7.6975292482    2.6761638630    33.2785438241    S
H    6.2912345337    4.1785985432    33.3062449364    S
C    6.9351937897    1.6510183340    33.8176013729    S
C    7.6429299345    0.4966590787    33.5805455755    S
C    8.8279728225    2.0893391005    32.7561893374    S
N    8.8224945672    0.7746967297    32.917314906499996    S
H    5.9885010922    1.8443847642    34.3090604795    S
H    7.3669957866    -0.5198377565    33.8446613561    S
H    9.5980362360    2.6673232658    32.2570702793    S
Au    0.0000000000    0.0000000000    41.161510064    R0
Au    8.7600000000    0.0000000000    41.161510064    R0
Au    4.3800000000    7.5863820000    41.161510064    R0
Au    13.1400000000    7.5863820000    41.161510064    R0
Au    2.9200000000    0.0000000000    41.161510064    R0
Au    7.3000000000    7.5863820000    41.161510064    R0
Au    5.8400000000    0.0000000000    41.161510064    R0
Au    10.2200000000    7.5863820000    41.161510064    R0
Au    1.4600000000    2.5287940000    41.161510064    R0
Au    10.2200000000    2.5287940000    41.161510064    R0
Au    4.3800000000    2.5287940000    41.161510064    R0
Au    7.3000000000    2.5287940000    41.161510064    R0
Au    2.9200000000    5.0575880000    41.161510064    R0
Au    11.6800000000    5.0575880000    41.161510064    R0
Au    5.8400000000    5.0575880000    41.161510064    R0
Au    8.7600000000    5.0575880000    41.161510064    R0
Au    1.4600000000    0.8429310000    43.545680063999995    R0
Au    10.2200000000    0.8429310000    43.545680063999995    R0
Au    5.8400000000    8.4293140000    43.545680063999995    R0
Au    14.6000000000    8.4293140000    43.545680063999995    R0
Au    4.3800000000    0.8429310000    43.545680063999995    R0
Au    8.7600000000    8.4293140000    43.545680063999995    R0
Au    7.3000000000    0.8429310000    43.545680063999995    R0
Au    11.6800000000    8.4293140000    43.545680063999995    R0
Au    2.9200000000    3.3717260000    43.545680063999995    R0
Au    11.6800000000    3.3717260000    43.545680063999995    R0
Au    5.8400000000    3.3717260000    43.545680063999995    R0
Au    8.7600000000    3.3717260000    43.545680063999995    R0
Au    4.3800000000    5.9005200000    43.545680063999995    R0
Au    13.1400000000    5.9005200000    43.545680063999995    R0
Au    7.3000000000    5.9005200000    43.545680063999995    R0
Au    10.2200000000    5.9005200000    43.545680063999995    R0
Au    8.7600000000    1.6858630000    45.929850064    R0
Au    13.1400000000    9.2722450000    45.929850064    R0
Au    2.9200000000    1.6858630000    45.929850064    R0
Au    11.6800000000    1.6858630000    45.929850064    R0
Au    7.3000000000    9.2722450000    45.929850064    R0
Au    16.0599990000    9.2722450000    45.929850064    R0
Au    5.8400000000    1.6858630000    45.929850064    R0
Au    10.2200000000    9.2722450000    45.929850064    R0
Au    10.2200000000    4.2146570000    45.929850064    R0
Au    4.3800000000    4.2146570000    45.929850064    R0
Au    13.1400000000    4.2146570000    45.929850064    R0
Au    7.3000000000    4.2146570000    45.929850064    R0
Au    11.6800000000    6.7434510000    45.929850064    R0
Au    5.8400000000    6.7434510000    45.929850064    R0
Au    14.6000000000    6.7434510000    45.929850064    R0
Au    8.7600000000    6.7434510000    45.929850064    R0
Au    0.000000    0.000000    48.314020136    R1
Au    8.760000    0.000000    48.314020136    R1
Au    4.380000    7.586382    48.314020136    R1
Au    13.140000    7.586382    48.314020136    R1
Au    2.920000    0.000000    48.314020136    R1
Au    7.300000    7.586382    48.314020136    R1
Au    5.840000    0.000000    48.314020136    R1
Au    10.220000    7.586382    48.314020136    R1
Au    1.460000    2.528794    48.314020136    R1
Au    10.220000    2.528794    48.314020136    R1
Au    4.380000    2.528794    48.314020136    R1
Au    7.300000    2.528794    48.314020136    R1
Au    2.920000    5.057588    48.314020136    R1
Au    11.680000    5.057588    48.314020136    R1
Au    5.840000    5.057588    48.314020136    R1
Au    8.760000    5.057588    48.314020136    R1
Au    1.460000    0.842931    50.698190136    R1
Au    10.220000    0.842931    50.698190136    R1
Au    5.840000    8.429314    50.698190136    R1
Au    14.600000    8.429314    50.698190136    R1
Au    4.380000    0.842931    50.698190136    R1
Au    8.760000    8.429314    50.698190136    R1
Au    7.300000    0.842931    50.698190136    R1
Au    11.680000    8.429314    50.698190136    R1
Au    2.920000    3.371726    50.698190136    R1
Au    11.680000    3.371726    50.698190136    R1
Au    5.840000    3.371726    50.698190136    R1
Au    8.760000    3.371726    50.698190136    R1
Au    4.380000    5.900520    50.698190136    R1
Au    13.140000    5.900520    50.698190136    R1
Au    7.300000    5.900520    50.698190136    R1
Au    10.220000    5.900520    50.698190136    R1
Au    8.760000    1.685863    53.082360136000005    R1
Au    13.140000    9.272245    53.082360136000005    R1
Au    2.920000    1.685863    53.082360136000005    R1
Au    11.680000    1.685863    53.082360136000005    R1
Au    7.300000    9.272245    53.082360136000005    R1
Au    16.059999    9.272245    53.082360136000005    R1
Au    5.840000    1.685863    53.082360136000005    R1
Au    10.220000    9.272245    53.082360136000005    R1
Au    10.220000    4.214657    53.082360136000005    R1
Au    4.380000    4.214657    53.082360136000005    R1
Au    13.140000    4.214657    53.082360136000005    R1
Au    7.300000    4.214657    53.082360136000005    R1
Au    11.680000    6.743451    53.082360136000005    R1
Au    5.840000    6.743451    53.082360136000005    R1
Au    14.600000    6.743451    53.082360136000005    R1
Au    8.760000    6.743451    53.082360136000005    R1
Au    0.000000    0.000000    55.466529136000005    R2
Au    8.760000    0.000000    55.466529136000005    R2
Au    4.380000    7.586382    55.466529136000005    R2
Au    13.140000    7.586382    55.466529136000005    R2
Au    2.920000    0.000000    55.466529136000005    R2
Au    7.300000    7.586382    55.466529136000005    R2
Au    5.840000    0.000000    55.466529136000005    R2
Au    10.220000    7.586382    55.466529136000005    R2
Au    1.460000    2.528794    55.466529136000005    R2
Au    10.220000    2.528794    55.466529136000005    R2
Au    4.380000    2.528794    55.466529136000005    R2
Au    7.300000    2.528794    55.466529136000005    R2
Au    2.920000    5.057588    55.466529136000005    R2
Au    11.680000    5.057588    55.466529136000005    R2
Au    5.840000    5.057588    55.466529136000005    R2
Au    8.760000    5.057588    55.466529136000005    R2
Au    1.460000    0.842931    57.85070013600001    R2
Au    10.220000    0.842931    57.85070013600001    R2
Au    5.840000    8.429314    57.85070013600001    R2
Au    14.600000    8.429314    57.85070013600001    R2
Au    4.380000    0.842931    57.85070013600001    R2
Au    8.760000    8.429314    57.85070013600001    R2
Au    7.300000    0.842931    57.85070013600001    R2
Au    11.680000    8.429314    57.85070013600001    R2
Au    2.920000    3.371726    57.85070013600001    R2
Au    11.680000    3.371726    57.85070013600001    R2
Au    5.840000    3.371726    57.85070013600001    R2
Au    8.760000    3.371726    57.85070013600001    R2
Au    4.380000    5.900520    57.85070013600001    R2
Au    13.140000    5.900520    57.85070013600001    R2
Au    7.300000    5.900520    57.85070013600001    R2
Au    10.220000    5.900520    57.85070013600001    R2
Au    8.760000    1.685863    60.234870136000005    R2
Au    13.140000    9.272245    60.234870136000005    R2
Au    2.920000    1.685863    60.234870136000005    R2
Au    11.680000    1.685863    60.234870136000005    R2
Au    7.300000    9.272245    60.234870136000005    R2
Au    16.059999    9.272245    60.234870136000005    R2
Au    5.840000    1.685863    60.234870136000005    R2
Au    10.220000    9.272245    60.234870136000005    R2
Au    10.220000    4.214657    60.234870136000005    R2
Au    4.380000    4.214657    60.234870136000005    R2
Au    13.140000    4.214657    60.234870136000005    R2
Au    7.300000    4.214657    60.234870136000005    R2
Au    11.680000    6.743451    60.234870136000005    R2
Au    5.840000    6.743451    60.234870136000005    R2
Au    14.600000    6.743451    60.234870136000005    R2
Au    8.760000    6.743451    60.234870136000005    R2
Au    0.000000    0.000000    62.619039136000005    R3
Au    8.760000    0.000000    62.619039136000005    R3
Au    4.380000    7.586382    62.619039136000005    R3
Au    13.140000    7.586382    62.619039136000005    R3
Au    2.920000    0.000000    62.619039136000005    R3
Au    7.300000    7.586382    62.619039136000005    R3
Au    5.840000    0.000000    62.619039136000005    R3
Au    10.220000    7.586382    62.619039136000005    R3
Au    1.460000    2.528794    62.619039136000005    R3
Au    10.220000    2.528794    62.619039136000005    R3
Au    4.380000    2.528794    62.619039136000005    R3
Au    7.300000    2.528794    62.619039136000005    R3
Au    2.920000    5.057588    62.619039136000005    R3
Au    11.680000    5.057588    62.619039136000005    R3
Au    5.840000    5.057588    62.619039136000005    R3
Au    8.760000    5.057588    62.619039136000005    R3
Au    1.460000    0.842931    65.003210136    R3
Au    10.220000    0.842931    65.003210136    R3
Au    5.840000    8.429314    65.003210136    R3
Au    14.600000    8.429314    65.003210136    R3
Au    4.380000    0.842931    65.003210136    R3
Au    8.760000    8.429314    65.003210136    R3
Au    7.300000    0.842931    65.003210136    R3
Au    11.680000    8.429314    65.003210136    R3
Au    2.920000    3.371726    65.003210136    R3
Au    11.680000    3.371726    65.003210136    R3
Au    5.840000    3.371726    65.003210136    R3
Au    8.760000    3.371726    65.003210136    R3
Au    4.380000    5.900520    65.003210136    R3
Au    13.140000    5.900520    65.003210136    R3
Au    7.300000    5.900520    65.003210136    R3
Au    10.220000    5.900520    65.003210136    R3
Au    8.760000    1.685863    67.38738013600002    R3
Au    13.140000    9.272245    67.38738013600002    R3
Au    2.920000    1.685863    67.38738013600002    R3
Au    11.680000    1.685863    67.38738013600002    R3
Au    7.300000    9.272245    67.38738013600002    R3
Au    16.059999    9.272245    67.38738013600002    R3
Au    5.840000    1.685863    67.38738013600002    R3
Au    10.220000    9.272245    67.38738013600002    R3
Au    10.220000    4.214657    67.38738013600002    R3
Au    4.380000    4.214657    67.38738013600002    R3
Au    13.140000    4.214657    67.38738013600002    R3
Au    7.300000    4.214657    67.38738013600002    R3
Au    11.680000    6.743451    67.38738013600002    R3
Au    5.840000    6.743451    67.38738013600002    R3
Au    14.600000    6.743451    67.38738013600002    R3
Au    8.760000    6.743451    67.38738013600002    R3
