      32
 i =      176, E =      -913.2230494656
 Au         0.0000000000        0.0000000000        0.0000000000
 Au         2.9200000000        0.0000000000        0.0000000000
 Au         5.8400000000        0.0000000000        0.0000000000
 Au         1.4600000000        2.5287941680        0.0000000000
 Au         4.3800000000        2.5287941680        0.0000000000
 Au         7.3000000000        2.5287941680        0.0000000000
 Au         2.9200000000        5.0575883360        0.0000000000
 Au         5.8400000000        5.0575883360        0.0000000000
 Au         8.7600000000        5.0575883360        0.0000000000
 Au         1.4600000000        0.8429312920        2.3841700720
 Au         4.3800000000        0.8429312920        2.3841700720
 Au         7.3000000000        0.8429312920        2.3841700720
 Au         2.9200000000        3.3717254600        2.3841700720
 Au         5.8400000000        3.3717254600        2.3841700720
 Au         8.7600000000        3.3717254600        2.3841700720
 Au         4.3800000000        5.9005196280        2.3841700720
 Au         7.3000000000        5.9005196280        2.3841700720
 Au        10.2200000000        5.9005196280        2.3841700720
 Au         0.0000000000        1.6858628760        4.7683401440
 Au         2.9200000000        1.6858628760        4.7683401440
 Au         5.8400000000        1.6858628760        4.7683401440
 Au         1.4600000000        4.2146570440        4.7683401440
 Au         4.3800000000        4.2146570440        4.7683401440
 Au         7.3000000000        4.2146570440        4.7683401440
 Au         2.9200000000        6.7434512120        4.7683401440
 Au         5.8400000000        6.7434512120        4.7683401440
 Au         8.7600000000        6.7434512120        4.7683401440
  S         6.3384257371        3.0844283702        6.7672904187
  C         7.6627119845        2.3205860414        7.7211878551
  H         8.4372435847        1.8651599965        7.0729739227
  H         7.2168128917        1.5401975640        8.3542750468
  H         8.1248246894        3.0998177065        8.3439005691