     184
 i =      496, E =     -5106.3339517474
 Au         0.0000000000        0.0000000000       -0.1745856095
 Au         8.7600000000        0.0000000000       -0.1409413794
 Au         4.3800000000        7.5863820000       -0.1363453727
 Au        13.1400000000        7.5863820000       -0.2421947581
 Au         2.9200000000        0.0000000000       -0.1739913588
 Au        11.6800000000        0.0000000000       -0.1493528225
 Au         7.3000000000        7.5863820000       -0.0401873185
 Au        16.0599990000        7.5863820000       -0.1969746695
 Au         5.8400000000        0.0000000000       -0.1759718778
 Au        10.2200000000        7.5863820000       -0.1588934581
 Au         1.4600000000        2.5287940000       -0.1863566375
 Au        10.2200000000        2.5287940000       -0.0967900834
 Au         5.8400000000       10.1151760000       -0.1369441050
 Au        14.6000000000       10.1151760000       -0.1958829713
 Au         4.3800000000        2.5287940000       -0.1648187453
 Au        13.1400000000        2.5287940000       -0.1420290555
 Au         8.7600000000       10.1151760000       -0.1151127146
 Au        17.5200000000       10.1151760000       -0.1670107270
 Au         7.3000000000        2.5287940000       -0.0931474783
 Au        11.6800000000       10.1151760000       -0.1996570697
 Au         2.9200000000        5.0575880000       -0.1789026450
 Au        11.6800000000        5.0575880000       -0.1947510429
 Au         5.8400000000        5.0575880000       -0.0943947811
 Au        14.6000000000        5.0575880000       -0.2117886075
 Au         8.7600000000        5.0575880000       -0.0783506192
 Au         1.4600000000        0.8429310000        2.4461982087
 Au        10.2200000000        0.8429310000        2.4879533285
 Au         5.8400000000        8.4293140000        2.5144302109
 Au        14.6000000000        8.4293140000        2.4125902571
 Au         4.3800000000        0.8429310000        2.4489587473
 Au        13.1400000000        0.8429310000        2.4571839722
 Au         8.7600000000        8.4293140000        2.5891985434
 Au        17.5200000000        8.4293140000        2.4553012177
 Au         7.3000000000        0.8429310000        2.4798896846
 Au        11.6800000000        8.4293140000        2.3775920001
 Au         2.9200000000        3.3717260000        2.4448427569
 Au        11.6800000000        3.3717260000        2.5187194530
 Au         7.3000000000       10.9581080000        2.4751629551
 Au        16.0599990000       10.9581080000        2.4562518947
 Au         5.8400000000        3.3717260000        2.4907374969
 Au        14.6000000000        3.3717260000        2.4339339703
 Au        10.2200000000       10.9581080000        2.4562579758
 Au        18.9800000000       10.9581080000        2.4724512889
 Au         8.7600000000        3.3717260000        2.5648292186
 Au        13.1400000000       10.9581080000        2.4322510785
 Au         4.3800000000        5.9005200000        2.4815272405
 Au        13.1400000000        5.9005200000        2.3607198774
 Au         7.3000000000        5.9005200000        2.5984673273
 Au        16.0599990000        5.9005200000        2.4264491187
 Au        10.2200000000        5.9005200000        2.4581589177
 Au         8.7600000000        1.6858630000        5.1220392775
 Au        13.1400000000        9.2722450000        5.0326084486
 Au         2.9200000000        1.6858630000        5.0691152082
 Au        11.6800000000        1.6858630000        5.0918712583
 Au         7.3000000000        9.2722450000        5.1371114645
 Au        16.0599990000        9.2722450000        5.0645202455
 Au         5.8400000000        1.6858630000        5.0922391853
 Au        14.6000000000        1.6858630000        5.0697340018
 Au        10.2200000000        9.2722450000        5.0877486911
 Au        18.9800000000        9.2722450000        5.1047402553
 Au        10.2200000000        4.2146570000        5.1842828575
 Au        14.6000000000       11.8010400000        5.0830516852
 Au         4.3800000000        4.2146570000        5.0924956045
 Au        13.1400000000        4.2146570000        5.0308360140
 Au         8.7600000000       11.8010400000        5.0832624404
 Au        17.5200000000       11.8010400000        5.1006944456
 Au         7.3000000000        4.2146570000        5.1236052899
 Au        16.0599990000        4.2146570000        5.0576799086
 Au        11.6800000000       11.8010400000        5.0647317571
 Au        20.4400010000       11.8010400000        5.0895377727
 Au        11.6800000000        6.7434510000        4.8379847744
 Au         5.8400000000        6.7434510000        5.1408142450
 Au        14.6000000000        6.7434510000        5.0251109951
 Au         8.7600000000        6.7434510000        5.5027830276
 Au        17.5200000000        6.7434510000        5.0765827678
  C        10.9361688239        4.7761038268       19.6396327113
  C        11.5356533411        5.5531234119       18.6313177190
  C        11.7415591654        5.0049514553       17.3684532841
  C        11.3773128073        3.6801244291       17.0748541958
  C        10.6423381068        3.4235869198       19.3876074303
  C        10.8628664375        2.8915853960       18.1191861998
  C         8.9510060553        3.6962651700       11.2632029407
  H        12.1778162484        5.6269107517       16.5841592202
  S        10.2667523640        5.6236209114       21.0396630176
  H        10.2068604202        2.8090460111       20.1760073829
  H        10.6043649472        1.8474871001       17.9308525394
  H        11.7983274740        6.5919502177       18.8312425276
  C         8.5626258531        5.0056636974       10.9343179711
  C         8.8031650522        5.5403670060        9.6710936173
  C         9.4607609654        4.7644695484        8.6997090586
  C         9.7780204073        3.4234159996        8.9836441540
  C         9.5231715491        2.9051535811       10.2511694369
  H         8.5247247902        6.5698280820        9.4458282763
  H         8.0834168646        5.6287876306       11.6921909633
  H        10.2597189439        2.8092164904        8.2224467840
  H         9.8022073820        1.8715669898       10.4662558478
  S        10.1823336481        5.5954990055        7.3150182266
  C        11.4562765752        3.1686590888       15.6577606619
  C         8.8442693251        3.2035494021       12.6856044493
  C        10.2116867532        3.2331602460       13.4114828632
  C        10.0859092969        3.2313874830       14.9381968396
  H        10.8248024283        2.3815890154       13.0727477589
  H        10.7591149257        4.1401214052       13.1052995961
  H         9.4551882425        2.3919712752       15.2751014025
  H         9.5602342722        4.1492906002       15.2497166525
  H        12.1825504527        3.7793182837       15.0976532378
  H        11.8334357779        2.1338274114       15.6387526766
  H         8.1327986381        3.8415579744       13.2337160106
  H         8.4363851261        2.1803525696       12.7137487408
 Au         8.7600020000        1.6858630000       23.2410448893
 Au        13.1400000000        9.2722460000       23.2044654236
 Au         2.9200000000        1.6858630000       23.2651941524
 Au        11.6800000000        1.6858630000       23.2123372605
 Au         7.3000000000        9.2722460000       23.3091368941
 Au        16.0599990000        9.2722460000       23.2322713242
 Au         5.8400010000        1.6858630000       23.2634824756
 Au        14.6000000000        1.6858630000       23.2428027604
 Au        10.2200000000        9.2722460000       23.2564332326
 Au        18.9800000000        9.2722460000       23.2725415874
 Au        10.2200010000        4.2146570000       23.1382872556
 Au        14.6000000000       11.8010400000       23.2441670031
 Au         4.3800000000        4.2146570000       23.2786781098
 Au        13.1400000000        4.2146570000       23.2135037281
 Au         8.7600000000       11.8010400000       23.2721948523
 Au        17.5200000000       11.8010400000       23.2338397683
 Au         7.3000000000        4.2146570000       23.3032787247
 Au        16.0599990000        4.2146570000       23.2431509840
 Au        11.6800000000       11.8010400000       23.2522971357
 Au        20.4400010000       11.8010400000       23.2539400152
 Au        11.6800000000        6.7434510000       22.9304061827
 Au         5.8400000000        6.7434510000       23.3164618850
 Au        14.6000000000        6.7434510000       23.1979692108
 Au         8.7600000000        6.7434510000       23.5040943403
 Au        17.5200000000        6.7434510000       23.2596552666
 Au         1.4600000000        0.8429310000       25.8866223479
 Au        10.2200000000        0.8429310000       25.8458245445
 Au         5.8400010000        8.4293140000       25.9277370168
 Au        14.6000000000        8.4293140000       25.8255443513
 Au         4.3800000000        0.8429310000       25.8883685441
 Au        13.1400010000        0.8429310000       25.8560551158
 Au         8.7600000000        8.4293140000       25.9663297739
 Au        17.5200000000        8.4293140000       25.8803762846
 Au         7.3000010000        0.8429310000       25.8756192185
 Au        11.6800000000        8.4293140000       25.7593185038
 Au         2.9200000000        3.3717260000       25.8897474997
 Au        11.6800010000        3.3717260000       25.7698644690
 Au         7.3000000000       10.9581090000       25.9060246134
 Au        16.0599980000       10.9581090000       25.8633270426
 Au         5.8400000000        3.3717260000       25.9005707885
 Au        14.6000000000        3.3717260000       25.8451722255
 Au        10.2200000000       10.9581090000       25.8826842376
 Au        18.9800000000       10.9581090000       25.8790828821
 Au         8.7600000000        3.3717260000       25.8139753056
 Au        13.1399990000       10.9581090000       25.8614913906
 Au         4.3800000000        5.9005200000       25.9114873058
 Au        13.1400000000        5.9005200000       25.7476274861
 Au         7.3000000000        5.9005200000       25.9787217119
 Au        16.0599990000        5.9005200000       25.8550149824
 Au        10.2200000000        5.9005200000       25.8864907809
 Au         0.0000000000        0.0000000000       28.5126840522
 Au         8.7600000000        0.0000000000       28.4829841997
 Au         4.3800000000        7.5863820000       28.5361877683
 Au        13.1399990000        7.5863820000       28.3870421485
 Au         2.9200000000        0.0000000000       28.5102262259
 Au        11.6800000000        0.0000000000       28.4752252627
 Au         7.3000000000        7.5863820000       28.5841754624
 Au        16.0599990000        7.5863820000       28.4735179389
 Au         5.8400000000        0.0000000000       28.5091209715
 Au        10.2200000000        7.5863820000       28.5042423951
 Au         1.4600000000        2.5287940000       28.5005496487
 Au        10.2200000000        2.5287940000       28.4294706820
 Au         5.8400000000       10.1151760000       28.5346547656
 Au        14.6000000000       10.1151760000       28.4736995964
 Au         4.3800000000        2.5287940000       28.5210044745
 Au        13.1400000000        2.5287940000       28.4290021984
 Au         8.7600000000       10.1151760000       28.5406737087
 Au        17.5200000000       10.1151760000       28.5033734786
 Au         7.3000000000        2.5287940000       28.4753914506
 Au        11.6800000000       10.1151760000       28.4537411348
 Au         2.9200000000        5.0575880000       28.5160165504
 Au        11.6800000000        5.0575880000       28.4207584247
 Au         5.8400000000        5.0575880000       28.5501858763
 Au        14.6000000000        5.0575880000       28.4311966886
 Au         8.7600000000        5.0575880000       28.5335293401