     130
 i =      581, E =     -3311.4286919292
 Au         0.0000000000        0.0000000000        0.0000000000
 Au         8.7600000000        0.0000000000        0.0000000000
 Au         4.3800000000        7.5863820000        0.0000000000
 Au        13.1400000000        7.5863820000        0.0000000000
 Au         2.9200000000        0.0000000000        0.0000000000
 Au         7.3000000000        7.5863820000        0.0000000000
 Au         5.8400000000        0.0000000000        0.0000000000
 Au        10.2200000000        7.5863820000        0.0000000000
 Au         1.4600000000        2.5287940000        0.0000000000
 Au        10.2200000000        2.5287940000        0.0000000000
 Au         4.3800000000        2.5287940000        0.0000000000
 Au         7.3000000000        2.5287940000        0.0000000000
 Au         2.9200000000        5.0575880000        0.0000000000
 Au        11.6800000000        5.0575880000        0.0000000000
 Au         5.8400000000        5.0575880000        0.0000000000
 Au         8.7600000000        5.0575880000        0.0000000000
 Au         1.4600000000        0.8429310000        2.3841700000
 Au        10.2200000000        0.8429310000        2.3841700000
 Au         5.8400000000        8.4293140000        2.3841700000
 Au        14.6000000000        8.4293140000        2.3841700000
 Au         4.3800000000        0.8429310000        2.3841700000
 Au         8.7600000000        8.4293140000        2.3841700000
 Au         7.3000000000        0.8429310000        2.3841700000
 Au        11.6800000000        8.4293140000        2.3841700000
 Au         2.9200000000        3.3717260000        2.3841700000
 Au        11.6800000000        3.3717260000        2.3841700000
 Au         5.8400000000        3.3717260000        2.3841700000
 Au         8.7600000000        3.3717260000        2.3841700000
 Au         4.3800000000        5.9005200000        2.3841700000
 Au        13.1400000000        5.9005200000        2.3841700000
 Au         7.3000000000        5.9005200000        2.3841700000
 Au        10.2200000000        5.9005200000        2.3841700000
 Au         8.7600000000        1.6858630000        4.7683400000
 Au        13.1400000000        9.2722450000        4.7683400000
 Au         2.9200000000        1.6858630000        4.7683400000
 Au        11.6800000000        1.6858630000        4.7683400000
 Au         7.3000000000        9.2722450000        4.7683400000
 Au        16.0599990000        9.2722450000        4.7683400000
 Au         5.8400000000        1.6858630000        4.7683400000
 Au        10.2200000000        9.2722450000        4.7683400000
 Au        10.2200000000        4.2146570000        4.7683400000
 Au         4.3800000000        4.2146570000        4.7683400000
 Au        13.1400000000        4.2146570000        4.7683400000
 Au         7.3000000000        4.2146570000        4.7683400000
 Au        11.6800000000        6.7434510000        4.7683400000
 Au         5.8400000000        6.7434510000        4.7683400000
 Au        14.6000000000        6.7434510000        4.7683400000
 Au         8.7600000000        6.7434510000        4.7683400000
  C        11.4510852607        5.0161198046       19.9144591499
  C        12.0443607758        5.9604171293       19.0566711853
  C        12.4951896112        5.5687776349       17.7982741199
  C        12.3879772497        4.2390167505       17.3577902752
  C        11.3893614137        3.6691545165       19.5161127305
  C        11.8530149537        3.2961547697       18.2537028068
  C        10.8483258924        3.9801373517       11.1498022862
  H        12.9333312148        6.3188530119       17.1362653074
  S        10.5651213364        5.6315390103       21.3228071105
  H        10.9540863320        2.9272413293       20.1862829429
  H        11.7831381297        2.2478005328       17.9554149117
  H        12.1204440253        7.0018936119       19.3696760315
  C        11.0743595537        5.3316758268       10.8329551646
  C        11.0296299025        5.7878208137        9.5199019874
  C        10.7443752292        4.8914739192        8.4699569867
  C        10.5852357032        3.5268061086        8.7580334102
  C        10.6388460608        3.0889176719       10.0837515296
  H        11.1703009832        6.8462318368        9.2999133496
  H        11.2521881516        6.0528999074       11.6335171209
  H        10.3832054273        2.8223788063        7.9504498474
  H        10.4768789045        2.0297279878       10.2954030798
  S        10.3906812795        5.6186855937        6.8911955690
  C        12.7871800105        3.8686966543       15.9465919264
  C        10.7255812391        3.5425324860       12.5943331007
  C        11.9558967367        3.7697718368       13.4989657065
  C        11.5785505730        3.7655854315       14.9881087160
  H        12.7164611939        3.0005367587       13.2884469938
  H        12.4251077547        4.7362294044       13.2538452369
  H        11.0022253055        2.8571415873       15.2298273752
  H        10.8990070668        4.6125333256       15.1794741119
  H        13.4824062488        4.6321531510       15.5631712451
  H        13.3372390092        2.9142286944       15.9438617550
  H         9.8774709858        4.0985164135       13.0322965100
  H        10.4372747219        2.4809713426       12.6298642951
 Au         8.7600020000        1.6858630000       23.4547757133
 Au        13.1400000000        9.2722460000       23.4547757133
 Au         2.9200000000        1.6858630000       23.4547757133
 Au        11.6800000000        1.6858630000       23.4547757133
 Au         7.3000000000        9.2722460000       23.4547757133
 Au        16.0599990000        9.2722460000       23.4547757133
 Au         5.8400010000        1.6858630000       23.4547757133
 Au        10.2200000000        9.2722460000       23.4547757133
 Au        10.2200010000        4.2146570000       23.4547757133
 Au         4.3800000000        4.2146570000       23.4547757133
 Au        13.1400000000        4.2146570000       23.4547757133
 Au         7.3000000000        4.2146570000       23.4547757133
 Au        11.6800000000        6.7434510000       23.4547757133
 Au         5.8400000000        6.7434510000       23.4547757133
 Au        14.6000000000        6.7434510000       23.4547757133
 Au         8.7600000000        6.7434510000       23.4547757133
 Au         1.4600000000        0.8429310000       25.8389457133
 Au        10.2200000000        0.8429310000       25.8389457133
 Au         5.8400010000        8.4293140000       25.8389457133
 Au        14.6000000000        8.4293140000       25.8389457133
 Au         4.3800000000        0.8429310000       25.8389457133
 Au         8.7600000000        8.4293140000       25.8389457133
 Au         7.3000010000        0.8429310000       25.8389457133
 Au        11.6800000000        8.4293140000       25.8389457133
 Au         2.9200000000        3.3717260000       25.8389457133
 Au        11.6800010000        3.3717260000       25.8389457133
 Au         5.8400000000        3.3717260000       25.8389457133
 Au         8.7600000000        3.3717260000       25.8389457133
 Au         4.3800000000        5.9005200000       25.8389457133
 Au        13.1400000000        5.9005200000       25.8389457133
 Au         7.3000000000        5.9005200000       25.8389457133
 Au        10.2200000000        5.9005200000       25.8389457133
 Au         0.0000000000        0.0000000000       28.2231157133
 Au         8.7600000000        0.0000000000       28.2231157133
 Au         4.3800000000        7.5863820000       28.2231157133
 Au        13.1399990000        7.5863820000       28.2231157133
 Au         2.9200000000        0.0000000000       28.2231157133
 Au         7.3000000000        7.5863820000       28.2231157133
 Au         5.8400000000        0.0000000000       28.2231157133
 Au        10.2200000000        7.5863820000       28.2231157133
 Au         1.4600000000        2.5287940000       28.2231157133
 Au        10.2200000000        2.5287940000       28.2231157133
 Au         4.3800000000        2.5287940000       28.2231157133
 Au         7.3000000000        2.5287940000       28.2231157133
 Au         2.9200000000        5.0575880000       28.2231157133
 Au        11.6800000000        5.0575880000       28.2231157133
 Au         5.8400000000        5.0575880000       28.2231157133
 Au         8.7600000000        5.0575880000       28.2231157133
