 420
 i =       82, E =     -3365.3998523447
Au     0.000000     0.000000     0.000000     L3
Au     8.760000     0.000000     0.000000     L3
Au     4.380000     7.586382     0.000000     L3
Au     13.140000     7.586382     0.000000     L3
Au     2.920000     0.000000     0.000000     L3
Au     11.680000     0.000000     0.000000     L3
Au     7.300000     7.586382     0.000000     L3
Au     16.059999     7.586382     0.000000     L3
Au     5.840000     0.000000     0.000000     L3
Au     10.220000     7.586382     0.000000     L3
Au     1.460000     2.528794     0.000000     L3
Au     10.220000     2.528794     0.000000     L3
Au     5.840000     10.115176     0.000000     L3
Au     14.600000     10.115176     0.000000     L3
Au     4.380000     2.528794     0.000000     L3
Au     13.140000     2.528794     0.000000     L3
Au     8.760000     10.115176     0.000000     L3
Au     17.520000     10.115176     0.000000     L3
Au     7.300000     2.528794     0.000000     L3
Au     11.680000     10.115176     0.000000     L3
Au     2.920000     5.057588     0.000000     L3
Au     11.680000     5.057588     0.000000     L3
Au     5.840000     5.057588     0.000000     L3
Au     14.600000     5.057588     0.000000     L3
Au     8.760000     5.057588     0.000000     L3
Au     1.460000     0.842931     2.384170     L3
Au     10.220000     0.842931     2.384170     L3
Au     5.840000     8.429314     2.384170     L3
Au     14.600000     8.429314     2.384170     L3
Au     4.380000     0.842931     2.384170     L3
Au     13.140000     0.842931     2.384170     L3
Au     8.760000     8.429314     2.384170     L3
Au     17.520000     8.429314     2.384170     L3
Au     7.300000     0.842931     2.384170     L3
Au     11.680000     8.429314     2.384170     L3
Au     2.920000     3.371726     2.384170     L3
Au     11.680000     3.371726     2.384170     L3
Au     7.300000     10.958108     2.384170     L3
Au     16.059999     10.958108     2.384170     L3
Au     5.840000     3.371726     2.384170     L3
Au     14.600000     3.371726     2.384170     L3
Au     10.220000     10.958108     2.384170     L3
Au     18.980000     10.958108     2.384170     L3
Au     8.760000     3.371726     2.384170     L3
Au     13.140000     10.958108     2.384170     L3
Au     4.380000     5.900520     2.384170     L3
Au     13.140000     5.900520     2.384170     L3
Au     7.300000     5.900520     2.384170     L3
Au     16.059999     5.900520     2.384170     L3
Au     10.220000     5.900520     2.384170     L3
Au     8.760000     1.685863     4.768340     L3
Au     13.140000     9.272245     4.768340     L3
Au     2.920000     1.685863     4.768340     L3
Au     11.680000     1.685863     4.768340     L3
Au     7.300000     9.272245     4.768340     L3
Au     16.059999     9.272245     4.768340     L3
Au     5.840000     1.685863     4.768340     L3
Au     14.600000     1.685863     4.768340     L3
Au     10.220000     9.272245     4.768340     L3
Au     18.980000     9.272245     4.768340     L3
Au     10.220000     4.214657     4.768340     L3
Au     14.600000     11.801040     4.768340     L3
Au     4.380000     4.214657     4.768340     L3
Au     13.140000     4.214657     4.768340     L3
Au     8.760000     11.801040     4.768340     L3
Au     17.520000     11.801040     4.768340     L3
Au     7.300000     4.214657     4.768340     L3
Au     16.059999     4.214657     4.768340     L3
Au     11.680000     11.801040     4.768340     L3
Au     20.440001     11.801040     4.768340     L3
Au     11.680000     6.743451     4.768340     L3
Au     5.840000     6.743451     4.768340     L3
Au     14.600000     6.743451     4.768340     L3
Au     8.760000     6.743451     4.768340     L3
Au     17.520000     6.743451     4.768340     L3
Au     0.000000     0.000000     7.152510     L2
Au     8.760000     0.000000     7.152510     L2
Au     4.380000     7.586382     7.152510     L2
Au     13.140000     7.586382     7.152510     L2
Au     2.920000     0.000000     7.152510     L2
Au     11.680000     0.000000     7.152510     L2
Au     7.300000     7.586382     7.152510     L2
Au     16.059999     7.586382     7.152510     L2
Au     5.840000     0.000000     7.152510     L2
Au     10.220000     7.586382     7.152510     L2
Au     1.460000     2.528794     7.152510     L2
Au     10.220000     2.528794     7.152510     L2
Au     5.840000     10.115176     7.152510     L2
Au     14.600000     10.115176     7.152510     L2
Au     4.380000     2.528794     7.152510     L2
Au     13.140000     2.528794     7.152510     L2
Au     8.760000     10.115176     7.152510     L2
Au     17.520000     10.115176     7.152510     L2
Au     7.300000     2.528794     7.152510     L2
Au     11.680000     10.115176     7.152510     L2
Au     2.920000     5.057588     7.152510     L2
Au     11.680000     5.057588     7.152510     L2
Au     5.840000     5.057588     7.152510     L2
Au     14.600000     5.057588     7.152510     L2
Au     8.760000     5.057588     7.152510     L2
Au     1.460000     0.842931     9.536680     L2
Au     10.220000     0.842931     9.536680     L2
Au     5.840000     8.429314     9.536680     L2
Au     14.600000     8.429314     9.536680     L2
Au     4.380000     0.842931     9.536680     L2
Au     13.140000     0.842931     9.536680     L2
Au     8.760000     8.429314     9.536680     L2
Au     17.520000     8.429314     9.536680     L2
Au     7.300000     0.842931     9.536680     L2
Au     11.680000     8.429314     9.536680     L2
Au     2.920000     3.371726     9.536680     L2
Au     11.680000     3.371726     9.536680     L2
Au     7.300000     10.958108     9.536680     L2
Au     16.059999     10.958108     9.536680     L2
Au     5.840000     3.371726     9.536680     L2
Au     14.600000     3.371726     9.536680     L2
Au     10.220000     10.958108     9.536680     L2
Au     18.980000     10.958108     9.536680     L2
Au     8.760000     3.371726     9.536680     L2
Au     13.140000     10.958108     9.536680     L2
Au     4.380000     5.900520     9.536680     L2
Au     13.140000     5.900520     9.536680     L2
Au     7.300000     5.900520     9.536680     L2
Au     16.059999     5.900520     9.536680     L2
Au     10.220000     5.900520     9.536680     L2
Au     8.760000     1.685863     11.920850     L2
Au     13.140000     9.272245     11.920850     L2
Au     2.920000     1.685863     11.920850     L2
Au     11.680000     1.685863     11.920850     L2
Au     7.300000     9.272245     11.920850     L2
Au     16.059999     9.272245     11.920850     L2
Au     5.840000     1.685863     11.920850     L2
Au     14.600000     1.685863     11.920850     L2
Au     10.220000     9.272245     11.920850     L2
Au     18.980000     9.272245     11.920850     L2
Au     10.220000     4.214657     11.920850     L2
Au     14.600000     11.801040     11.920850     L2
Au     4.380000     4.214657     11.920850     L2
Au     13.140000     4.214657     11.920850     L2
Au     8.760000     11.801040     11.920850     L2
Au     17.520000     11.801040     11.920850     L2
Au     7.300000     4.214657     11.920850     L2
Au     16.059999     4.214657     11.920850     L2
Au     11.680000     11.801040     11.920850     L2
Au     20.440001     11.801040     11.920850     L2
Au     11.680000     6.743451     11.920850     L2
Au     5.840000     6.743451     11.920850     L2
Au     14.600000     6.743451     11.920850     L2
Au     8.760000     6.743451     11.920850     L2
Au     17.520000     6.743451     11.920850     L2
Au     0.000000     0.000000     14.305019     L1
Au     8.760000     0.000000     14.305019     L1
Au     4.380000     7.586382     14.305019     L1
Au     13.140000     7.586382     14.305019     L1
Au     2.920000     0.000000     14.305019     L1
Au     11.680000     0.000000     14.305019     L1
Au     7.300000     7.586382     14.305019     L1
Au     16.059999     7.586382     14.305019     L1
Au     5.840000     0.000000     14.305019     L1
Au     10.220000     7.586382     14.305019     L1
Au     1.460000     2.528794     14.305019     L1
Au     10.220000     2.528794     14.305019     L1
Au     5.840000     10.115176     14.305019     L1
Au     14.600000     10.115176     14.305019     L1
Au     4.380000     2.528794     14.305019     L1
Au     13.140000     2.528794     14.305019     L1
Au     8.760000     10.115176     14.305019     L1
Au     17.520000     10.115176     14.305019     L1
Au     7.300000     2.528794     14.305019     L1
Au     11.680000     10.115176     14.305019     L1
Au     2.920000     5.057588     14.305019     L1
Au     11.680000     5.057588     14.305019     L1
Au     5.840000     5.057588     14.305019     L1
Au     14.600000     5.057588     14.305019     L1
Au     8.760000     5.057588     14.305019     L1
Au     1.460000     0.842931     16.689190     L1
Au     10.220000     0.842931     16.689190     L1
Au     5.840000     8.429314     16.689190     L1
Au     14.600000     8.429314     16.689190     L1
Au     4.380000     0.842931     16.689190     L1
Au     13.140000     0.842931     16.689190     L1
Au     8.760000     8.429314     16.689190     L1
Au     17.520000     8.429314     16.689190     L1
Au     7.300000     0.842931     16.689190     L1
Au     11.680000     8.429314     16.689190     L1
Au     2.920000     3.371726     16.689190     L1
Au     11.680000     3.371726     16.689190     L1
Au     7.300000     10.958108     16.689190     L1
Au     16.059999     10.958108     16.689190     L1
Au     5.840000     3.371726     16.689190     L1
Au     14.600000     3.371726     16.689190     L1
Au     10.220000     10.958108     16.689190     L1
Au     18.980000     10.958108     16.689190     L1
Au     8.760000     3.371726     16.689190     L1
Au     13.140000     10.958108     16.689190     L1
Au     4.380000     5.900520     16.689190     L1
Au     13.140000     5.900520     16.689190     L1
Au     7.300000     5.900520     16.689190     L1
Au     16.059999     5.900520     16.689190     L1
Au     10.220000     5.900520     16.689190     L1
Au     8.760000     1.685863     19.073360     L1
Au     13.140000     9.272245     19.073360     L1
Au     2.920000     1.685863     19.073360     L1
Au     11.680000     1.685863     19.073360     L1
Au     7.300000     9.272245     19.073360     L1
Au     16.059999     9.272245     19.073360     L1
Au     5.840000     1.685863     19.073360     L1
Au     14.600000     1.685863     19.073360     L1
Au     10.220000     9.272245     19.073360     L1
Au     18.980000     9.272245     19.073360     L1
Au     10.220000     4.214657     19.073360     L1
Au     14.600000     11.801040     19.073360     L1
Au     4.380000     4.214657     19.073360     L1
Au     13.140000     4.214657     19.073360     L1
Au     8.760000     11.801040     19.073360     L1
Au     17.520000     11.801040     19.073360     L1
Au     7.300000     4.214657     19.073360     L1
Au     16.059999     4.214657     19.073360     L1
Au     11.680000     11.801040     19.073360     L1
Au     20.440001     11.801040     19.073360     L1
Au     11.680000     6.743451     19.073360     L1
Au     5.840000     6.743451     19.073360     L1
Au     14.600000     6.743451     19.073360     L1
Au     8.760000     6.743451     19.073360     L1
Au     17.520000     6.743451     19.073360     L1
Au    0.0000000000    0.0000000000    21.5186919681    L0
Au    8.7600000000    0.0000000000    21.5543287038    L0
Au    4.3800000000    7.5863820000    21.5071439416    L0
Au    13.1400000000    7.5863820000    21.6337009794    L0
Au    2.9200000000    0.0000000000    21.5265109477    L0
Au    11.6800000000    0.0000000000    21.5521600046    L0
Au    7.3000000000    7.5863820000    21.4711935725    L0
Au    16.0599990000    7.5863820000    21.5587300704    L0
Au    5.8400000000    0.0000000000    21.5274654919    L0
Au    10.2200000000    7.5863820000    21.5446780244    L0
Au    1.4600000000    2.5287940000    21.5300059699    L0
Au    10.2200000000    2.5287940000    21.6087879076    L0
Au    5.8400000000    10.1151760000    21.5046343908    L0
Au    14.6000000000    10.1151760000    21.5593982579    L0
Au    4.3800000000    2.5287940000    21.5195306763    L0
Au    13.1400000000    2.5287940000    21.5902209879    L0
Au    8.7600000000    10.1151760000    21.5053624485    L0
Au    17.5200000000    10.1151760000    21.5288937135    L0
Au    7.3000000000    2.5287940000    21.5795553609    L0
Au    11.6800000000    10.1151760000    21.5856731592    L0
Au    2.9200000000    5.0575880000    21.5200098087    L0
Au    11.6800000000    5.0575880000    21.60816309    L0
Au    5.8400000000    5.0575880000    21.5030939195    L0
Au    14.6000000000    5.0575880000    21.5905635684    L0
Au    8.7600000000    5.0575880000    21.5277697193    L0
Au    1.4600000000    0.8429310000    24.147284064    L0
Au    10.2200000000    0.8429310000    24.1870722999    L0
Au    5.8400000000    8.4293140000    24.1185683525    L0
Au    14.6000000000    8.4293140000    24.202028764    L0
Au    4.3800000000    0.8429310000    24.1494064534    L0
Au    13.1400000000    0.8429310000    24.1689788162    L0
Au    8.7600000000    8.4293140000    24.088185312500002    L0
Au    17.5200000000    8.4293140000    24.1542115008    L0
Au    7.3000000000    0.8429310000    24.1680671966    L0
Au    11.6800000000    8.4293140000    24.2753263649    L0
Au    2.9200000000    3.3717260000    24.1447686807    L0
Au    11.6800000000    3.3717260000    24.2455542967    L0
Au    7.3000000000    10.9581080000    24.1331693362    L0
Au    16.0599990000    10.9581080000    24.1722891778    L0
Au    5.8400000000    3.3717260000    24.1492953348    L0
Au    14.6000000000    3.3717260000    24.175751151500002    L0
Au    10.2200000000    10.9581080000    24.157861477    L0
Au    18.9800000000    10.9581080000    24.1530405676    L0
Au    8.7600000000    3.3717260000    24.2466054389    L0
Au    13.1400000000    10.9581080000    24.1734564838    L0
Au    4.3800000000    5.9005200000    24.1333699742    L0
Au    13.1400000000    5.9005200000    24.2642555635    L0
Au    7.3000000000    5.9005200000    24.0827696929    L0
Au    16.0599990000    5.9005200000    24.1749359426    L0
Au    10.2200000000    5.9005200000    24.1639575599    L0
Au    8.7600000000    1.6858630000    26.8067785476    L0
Au    13.1400000000    9.2722450000    26.825365748    L0
Au    2.9200000000    1.6858630000    26.7697939604    L0
Au    11.6800000000    1.6858630000    26.802400821    L0
Au    7.3000000000    9.2722450000    26.7381249865    L0
Au    16.0599990000    9.2722450000    26.8005020416    L0
Au    5.8400000000    1.6858630000    26.780507086    L0
Au    14.6000000000    1.6858630000    26.7869720411    L0
Au    10.2200000000    9.2722450000    26.7858367637    L0
Au    18.9800000000    9.2722450000    26.764829964500002    L0
Au    10.2200000000    4.2146570000    26.8998443411    L0
Au    14.6000000000    11.8010400000    26.7936080114    L0
Au    4.3800000000    4.2146570000    26.7638992776    L0
Au    13.1400000000    4.2146570000    26.7875373922    L0
Au    8.7600000000    11.8010400000    26.7678950006    L0
Au    17.5200000000    11.8010400000    26.8002427169    L0
Au    7.3000000000    4.2146570000    26.7611688466    L0
Au    16.0599990000    4.2146570000    26.7846530654    L0
Au    11.6800000000    11.8010400000    26.7846621094    L0
Au    20.4400010000    11.8010400000    26.7772459552    L0
Au    11.6800000000    6.7434510000    27.0339148595    L0
Au    5.8400000000    6.7434510000    26.7371096501    L0
Au    14.6000000000    6.7434510000    26.8241849125    L0
Au    8.7600000000    6.7434510000    26.5655361454    L0
Au    17.5200000000    6.7434510000    26.777158903900002    L0
C    12.19176846510829    8.666938604133865    36.77361207831286    S1
N    12.40781890265609    8.269156301700216    37.85087785724765    S1
H    11.9926561261906    9.037086731954389    35.77925240019247    S1
C    11.186270928836073    4.902154974630764    41.216796372096425    S
C    11.743911374138177    5.599749980345092    40.1301585136451    S
C    12.205561500616838    4.898774017290153    39.006845498357535    S
C    12.125340830184724    3.496977283846575    38.92686412305467    S
C    11.075628655971965    3.499532681847511    41.143775633994736    S
C    11.53998235804314    2.8179765176835696    40.01508959469376    S
C    10.439947424666288    3.5944351218708275    33.166392058368686    S
H    12.655924496396624    5.470192783547251    38.18718785164186    S
S    10.629415846788188    5.7016178869755985    42.719315913978186    S
H    10.6427240066223    2.9387917654741536    41.97914435094086    S
H    11.464643264041202    1.7240771747225296    39.9877030424213    S
H    11.839264986810639    6.69042509494661    40.14760001132379    S
C    9.434702073907175    4.497811289268134    32.77571968620277    S
C    9.451029113575911    5.1186157624188855    31.51936576074479    S
C    10.48872049962395    4.8469384565946285    30.607924789841697    S
C    11.514700387621241    3.9619037520096074    30.991249652128467    S
C    11.481966823965612    3.3510730650593854    32.249471126914734    S
H    8.643319491200938    5.804421652417277    31.24228348451733    S
H    8.605267443739304    4.708985255852299    33.46091063959853    S
H    12.333331077691017    3.732902100610734    30.30013168603623    S
H    12.280544495481836    2.648329919667308    32.51659649361953    S
S    10.4291060779    5.6246057727    28.996079942499996    S
C    12.669864941579398    2.713357806180695    37.74787501963323    S
C    10.401980466537408    2.8657491669069115    34.49595490914888    S
C    11.42740404534432    3.3504817994770795    35.54869854326377    S
C    11.632267070230931    2.3138538794117403    36.66506809799747    S
H    12.399669549101915    3.534128706844073    35.050749618245824    S
H    11.106226068261218    4.322219357161911    35.96948435526261    S
H    11.966634589711072    1.3707155255374808    36.190394945474544    S
H    10.665236607905063    2.0841615418376427    37.152366993332315    S
H    13.489393384845734    3.2815292712212285    37.26823146987659    S
H    13.130971706867482    1.7876322026306593    38.139088204375874    S
H    9.384281915276988    2.922364043842153    34.924152783167486    S
H    10.592661089344091    1.7906855865535554    34.30636375709563    S
Au    8.7600020000    1.6858630000    44.4855692696    R0
Au    13.1400000000    9.2722460000    44.496934813799996    R0
Au    2.9200000000    1.6858630000    44.5364299533    R0
Au    11.6800000000    1.6858630000    44.5047235539    R0
Au    7.3000000000    9.2722460000    44.561069359    R0
Au    16.0599990000    9.2722460000    44.5104854822    R0
Au    5.8400010000    1.6858630000    44.517137972200004    R0
Au    14.6000000000    1.6858630000    44.5306195421    R0
Au    10.2200000000    9.2722460000    44.5307337408    R0
Au    18.9800000000    9.2722460000    44.539546854899996    R0
Au    10.2200010000    4.2146570000    44.331213497    R0
Au    14.6000000000    11.8010400000    44.512677054600005    R0
Au    4.3800000000    4.2146570000    44.5353217484    R0
Au    13.1400000000    4.2146570000    44.5522135966    R0
Au    8.7600000000    11.8010400000    44.5370837138    R0
Au    17.5200000000    11.8010400000    44.508448949699996    R0
Au    7.3000000000    4.2146570000    44.5182929733    R0
Au    16.0599990000    4.2146570000    44.5315181451    R0
Au    11.6800000000    11.8010400000    44.5215123767    R0
Au    20.4400010000    11.8010400000    44.53083119    R0
Au    11.6800000000    6.7434510000    44.381973259999995    R0
Au    5.8400000000    6.7434510000    44.557844098800004    R0
Au    14.6000000000    6.7434510000    44.501783838    R0
Au    8.7600000000    6.7434510000    44.7197855619    R0
Au    17.5200000000    6.7434510000    44.5292666827    R0
Au    1.4600000000    0.8429310000    47.163142783699996    R0
Au    10.2200000000    0.8429310000    47.1167970419    R0
Au    5.8400010000    8.4293140000    47.1810648455    R0
Au    14.6000000000    8.4293140000    47.120046028299996    R0
Au    4.3800000000    0.8429310000    47.154134407499996    R0
Au    13.1400010000    0.8429310000    47.1444210673    R0
Au    8.7600000000    8.4293140000    47.210637428    R0
Au    17.5200000000    8.4293140000    47.153536261300005    R0
Au    7.3000010000    0.8429310000    47.132847988600005    R0
Au    11.6800000000    8.4293140000    47.0546283771    R0
Au    2.9200000000    3.3717260000    47.1620126016    R0
Au    11.6800010000    3.3717260000    47.0675520259    R0
Au    7.3000000000    10.9581090000    47.169965244699995    R0
Au    16.0599980000    10.9581090000    47.1371014503    R0
Au    5.8400000000    3.3717260000    47.1447408493    R0
Au    14.6000000000    3.3717260000    47.1495196686    R0
Au    10.2200000000    10.9581090000    47.151201747    R0
Au    18.9800000000    10.9581090000    47.154507083599995    R0
Au    8.7600000000    3.3717260000    47.0314763808    R0
Au    13.1399990000    10.9581090000    47.137700258500004    R0
Au    4.3800000000    5.9005200000    47.166877456899996    R0
Au    13.1400000000    5.9005200000    47.0746372    R0
Au    7.3000000000    5.9005200000    47.2056255335    R0
Au    16.0599990000    5.9005200000    47.1415638613    R0
Au    10.2200000000    5.9005200000    47.1368528622    R0
Au    0.0000000000    0.0000000000    49.791004760999996    R0
Au    8.7600000000    0.0000000000    49.754000230900004    R0
Au    4.3800000000    7.5863820000    49.7957574153    R0
Au    13.1399990000    7.5863820000    49.702552361    R0
Au    2.9200000000    0.0000000000    49.7829446305    R0
Au    11.6800000000    0.0000000000    49.7591925919    R0
Au    7.3000000000    7.5863820000    49.8238777448    R0
Au    16.0599990000    7.5863820000    49.7577440111    R0
Au    5.8400000000    0.0000000000    49.7776185512    R0
Au    10.2200000000    7.5863820000    49.768391108900005    R0
Au    1.4600000000    2.5287940000    49.784948086200004    R0
Au    10.2200000000    2.5287940000    49.6878404955    R0
Au    5.8400000000    10.1151760000    49.797458976200005    R0
Au    14.6000000000    10.1151760000    49.7554987046    R0
Au    4.3800000000    2.5287940000    49.779934260800005    R0
Au    13.1400000000    2.5287940000    49.7344135962    R0
Au    8.7600000000    10.1151760000    49.795733490100005    R0
Au    17.5200000000    10.1151760000    49.7780744024    R0
Au    7.3000000000    2.5287940000    49.7154538712    R0
Au    11.6800000000    10.1151760000    49.7279729425    R0
Au    2.9200000000    5.0575880000    49.786846682299995    R0
Au    11.6800000000    5.0575880000    49.7076570917    R0
Au    5.8400000000    5.0575880000    49.791031638    R0
Au    14.6000000000    5.0575880000    49.734848704    R0
Au    8.7600000000    5.0575880000    49.7569494112    R0
Au    8.760002    1.685863   52.064815849300004 R1
Au   13.140000    9.272246   52.064815849300004 R1
Au    2.920000    1.685863   52.064815849300004 R1
Au   11.680000    1.685863   52.064815849300004 R1
Au    7.300000    9.272246   52.064815849300004 R1
Au   16.059999    9.272246   52.064815849300004 R1
Au    5.840001    1.685863   52.064815849300004 R1
Au   14.600000    1.685863   52.064815849300004 R1
Au   10.220000    9.272246   52.064815849300004 R1
Au   18.980000    9.272246   52.064815849300004 R1
Au   10.220001    4.214657   52.064815849300004 R1
Au   14.600000   11.801040   52.064815849300004 R1
Au    4.380000    4.214657   52.064815849300004 R1
Au   13.140000    4.214657   52.064815849300004 R1
Au    8.760000   11.801040   52.064815849300004 R1
Au   17.520000   11.801040   52.064815849300004 R1
Au    7.300000    4.214657   52.064815849300004 R1
Au   16.059999    4.214657   52.064815849300004 R1
Au   11.680000   11.801040   52.064815849300004 R1
Au   20.440001   11.801040   52.064815849300004 R1
Au   11.680000    6.743451   52.064815849300004 R1
Au    5.840000    6.743451   52.064815849300004 R1
Au   14.600000    6.743451   52.064815849300004 R1
Au    8.760000    6.743451   52.064815849300004 R1
Au   17.520000    6.743451   52.064815849300004 R1
Au    1.460000    0.842931   54.4489858493 R1
Au   10.220000    0.842931   54.4489858493 R1
Au    5.840001    8.429314   54.4489858493 R1
Au   14.600000    8.429314   54.4489858493 R1
Au    4.380000    0.842931   54.4489858493 R1
Au   13.140001    0.842931   54.4489858493 R1
Au    8.760000    8.429314   54.4489858493 R1
Au   17.520000    8.429314   54.4489858493 R1
Au    7.300001    0.842931   54.4489858493 R1
Au   11.680000    8.429314   54.4489858493 R1
Au    2.920000    3.371726   54.4489858493 R1
Au   11.680001    3.371726   54.4489858493 R1
Au    7.300000   10.958109   54.4489858493 R1
Au   16.059998   10.958109   54.4489858493 R1
Au    5.840000    3.371726   54.4489858493 R1
Au   14.600000    3.371726   54.4489858493 R1
Au   10.220000   10.958109   54.4489858493 R1
Au   18.980000   10.958109   54.4489858493 R1
Au    8.760000    3.371726   54.4489858493 R1
Au   13.139999   10.958109   54.4489858493 R1
Au    4.380000    5.900520   54.4489858493 R1
Au   13.140000    5.900520   54.4489858493 R1
Au    7.300000    5.900520   54.4489858493 R1
Au   16.059999    5.900520   54.4489858493 R1
Au   10.220000    5.900520   54.4489858493 R1
Au    0.000000    0.000000   56.833155849300006 R1
Au    8.760000    0.000000   56.833155849300006 R1
Au    4.380000    7.586382   56.833155849300006 R1
Au   13.139999    7.586382   56.833155849300006 R1
Au    2.920000    0.000000   56.833155849300006 R1
Au   11.680000    0.000000   56.833155849300006 R1
Au    7.300000    7.586382   56.833155849300006 R1
Au   16.059999    7.586382   56.833155849300006 R1
Au    5.840000    0.000000   56.833155849300006 R1
Au   10.220000    7.586382   56.833155849300006 R1
Au    1.460000    2.528794   56.833155849300006 R1
Au   10.220000    2.528794   56.833155849300006 R1
Au    5.840000   10.115176   56.833155849300006 R1
Au   14.600000   10.115176   56.833155849300006 R1
Au    4.380000    2.528794   56.833155849300006 R1
Au   13.140000    2.528794   56.833155849300006 R1
Au    8.760000   10.115176   56.833155849300006 R1
Au   17.520000   10.115176   56.833155849300006 R1
Au    7.300000    2.528794   56.833155849300006 R1
Au   11.680000   10.115176   56.833155849300006 R1
Au    2.920000    5.057588   56.833155849300006 R1
Au   11.680000    5.057588   56.833155849300006 R1
Au    5.840000    5.057588   56.833155849300006 R1
Au   14.600000    5.057588   56.833155849300006 R1
Au    8.760000    5.057588   56.833155849300006 R1
Au    8.760002    1.685863   59.2173258493 R2
Au   13.140000    9.272246   59.2173258493 R2
Au    2.920000    1.685863   59.2173258493 R2
Au   11.680000    1.685863   59.2173258493 R2
Au    7.300000    9.272246   59.2173258493 R2
Au   16.059999    9.272246   59.2173258493 R2
Au    5.840001    1.685863   59.2173258493 R2
Au   14.600000    1.685863   59.2173258493 R2
Au   10.220000    9.272246   59.2173258493 R2
Au   18.980000    9.272246   59.2173258493 R2
Au   10.220001    4.214657   59.2173258493 R2
Au   14.600000   11.801040   59.2173258493 R2
Au    4.380000    4.214657   59.2173258493 R2
Au   13.140000    4.214657   59.2173258493 R2
Au    8.760000   11.801040   59.2173258493 R2
Au   17.520000   11.801040   59.2173258493 R2
Au    7.300000    4.214657   59.2173258493 R2
Au   16.059999    4.214657   59.2173258493 R2
Au   11.680000   11.801040   59.2173258493 R2
Au   20.440001   11.801040   59.2173258493 R2
Au   11.680000    6.743451   59.2173258493 R2
Au    5.840000    6.743451   59.2173258493 R2
Au   14.600000    6.743451   59.2173258493 R2
Au    8.760000    6.743451   59.2173258493 R2
Au   17.520000    6.743451   59.2173258493 R2
Au    1.460000    0.842931   61.6014958493 R2
Au   10.220000    0.842931   61.6014958493 R2
Au    5.840001    8.429314   61.6014958493 R2
Au   14.600000    8.429314   61.6014958493 R2
Au    4.380000    0.842931   61.6014958493 R2
Au   13.140001    0.842931   61.6014958493 R2
Au    8.760000    8.429314   61.6014958493 R2
Au   17.520000    8.429314   61.6014958493 R2
Au    7.300001    0.842931   61.6014958493 R2
Au   11.680000    8.429314   61.6014958493 R2
Au    2.920000    3.371726   61.6014958493 R2
Au   11.680001    3.371726   61.6014958493 R2
Au    7.300000   10.958109   61.6014958493 R2
Au   16.059998   10.958109   61.6014958493 R2
Au    5.840000    3.371726   61.6014958493 R2
Au   14.600000    3.371726   61.6014958493 R2
Au   10.220000   10.958109   61.6014958493 R2
Au   18.980000   10.958109   61.6014958493 R2
Au    8.760000    3.371726   61.6014958493 R2
Au   13.139999   10.958109   61.6014958493 R2
Au    4.380000    5.900520   61.6014958493 R2
Au   13.140000    5.900520   61.6014958493 R2
Au    7.300000    5.900520   61.6014958493 R2
Au   16.059999    5.900520   61.6014958493 R2
Au   10.220000    5.900520   61.6014958493 R2
Au    0.000000    0.000000   63.985665849300005 R2
Au    8.760000    0.000000   63.985665849300005 R2
Au    4.380000    7.586382   63.985665849300005 R2
Au   13.139999    7.586382   63.985665849300005 R2
Au    2.920000    0.000000   63.985665849300005 R2
Au   11.680000    0.000000   63.985665849300005 R2
Au    7.300000    7.586382   63.985665849300005 R2
Au   16.059999    7.586382   63.985665849300005 R2
Au    5.840000    0.000000   63.985665849300005 R2
Au   10.220000    7.586382   63.985665849300005 R2
Au    1.460000    2.528794   63.985665849300005 R2
Au   10.220000    2.528794   63.985665849300005 R2
Au    5.840000   10.115176   63.985665849300005 R2
Au   14.600000   10.115176   63.985665849300005 R2
Au    4.380000    2.528794   63.985665849300005 R2
Au   13.140000    2.528794   63.985665849300005 R2
Au    8.760000   10.115176   63.985665849300005 R2
Au   17.520000   10.115176   63.985665849300005 R2
Au    7.300000    2.528794   63.985665849300005 R2
Au   11.680000   10.115176   63.985665849300005 R2
Au    2.920000    5.057588   63.985665849300005 R2
Au   11.680000    5.057588   63.985665849300005 R2
Au    5.840000    5.057588   63.985665849300005 R2
Au   14.600000    5.057588   63.985665849300005 R2
Au    8.760000    5.057588   63.985665849300005 R2
Au    8.760002    1.685863   66.3698358493 R3
Au   13.140000    9.272246   66.3698358493 R3
Au    2.920000    1.685863   66.3698358493 R3
Au   11.680000    1.685863   66.3698358493 R3
Au    7.300000    9.272246   66.3698358493 R3
Au   16.059999    9.272246   66.3698358493 R3
Au    5.840001    1.685863   66.3698358493 R3
Au   14.600000    1.685863   66.3698358493 R3
Au   10.220000    9.272246   66.3698358493 R3
Au   18.980000    9.272246   66.3698358493 R3
Au   10.220001    4.214657   66.3698358493 R3
Au   14.600000   11.801040   66.3698358493 R3
Au    4.380000    4.214657   66.3698358493 R3
Au   13.140000    4.214657   66.3698358493 R3
Au    8.760000   11.801040   66.3698358493 R3
Au   17.520000   11.801040   66.3698358493 R3
Au    7.300000    4.214657   66.3698358493 R3
Au   16.059999    4.214657   66.3698358493 R3
Au   11.680000   11.801040   66.3698358493 R3
Au   20.440001   11.801040   66.3698358493 R3
Au   11.680000    6.743451   66.3698358493 R3
Au    5.840000    6.743451   66.3698358493 R3
Au   14.600000    6.743451   66.3698358493 R3
Au    8.760000    6.743451   66.3698358493 R3
Au   17.520000    6.743451   66.3698358493 R3
Au    1.460000    0.842931   68.7540058493 R3
Au   10.220000    0.842931   68.7540058493 R3
Au    5.840001    8.429314   68.7540058493 R3
Au   14.600000    8.429314   68.7540058493 R3
Au    4.380000    0.842931   68.7540058493 R3
Au   13.140001    0.842931   68.7540058493 R3
Au    8.760000    8.429314   68.7540058493 R3
Au   17.520000    8.429314   68.7540058493 R3
Au    7.300001    0.842931   68.7540058493 R3
Au   11.680000    8.429314   68.7540058493 R3
Au    2.920000    3.371726   68.7540058493 R3
Au   11.680001    3.371726   68.7540058493 R3
Au    7.300000   10.958109   68.7540058493 R3
Au   16.059998   10.958109   68.7540058493 R3
Au    5.840000    3.371726   68.7540058493 R3
Au   14.600000    3.371726   68.7540058493 R3
Au   10.220000   10.958109   68.7540058493 R3
Au   18.980000   10.958109   68.7540058493 R3
Au    8.760000    3.371726   68.7540058493 R3
Au   13.139999   10.958109   68.7540058493 R3
Au    4.380000    5.900520   68.7540058493 R3
Au   13.140000    5.900520   68.7540058493 R3
Au    7.300000    5.900520   68.7540058493 R3
Au   16.059999    5.900520   68.7540058493 R3
Au   10.220000    5.900520   68.7540058493 R3
Au    0.000000    0.000000   71.1381758493 R3
Au    8.760000    0.000000   71.1381758493 R3
Au    4.380000    7.586382   71.1381758493 R3
Au   13.139999    7.586382   71.1381758493 R3
Au    2.920000    0.000000   71.1381758493 R3
Au   11.680000    0.000000   71.1381758493 R3
Au    7.300000    7.586382   71.1381758493 R3
Au   16.059999    7.586382   71.1381758493 R3
Au    5.840000    0.000000   71.1381758493 R3
Au   10.220000    7.586382   71.1381758493 R3
Au    1.460000    2.528794   71.1381758493 R3
Au   10.220000    2.528794   71.1381758493 R3
Au    5.840000   10.115176   71.1381758493 R3
Au   14.600000   10.115176   71.1381758493 R3
Au    4.380000    2.528794   71.1381758493 R3
Au   13.140000    2.528794   71.1381758493 R3
Au    8.760000   10.115176   71.1381758493 R3
Au   17.520000   10.115176   71.1381758493 R3
Au    7.300000    2.528794   71.1381758493 R3
Au   11.680000   10.115176   71.1381758493 R3
Au    2.920000    5.057588   71.1381758493 R3
Au   11.680000    5.057588   71.1381758493 R3
Au    5.840000    5.057588   71.1381758493 R3
Au   14.600000    5.057588   71.1381758493 R3
Au    8.760000    5.057588   71.1381758493 R3
