     34
 i =      135, E =      -120.8633779475
C   6.368667322925095   8.59723348432788   -2.4118489759768673
C   6.953860431611473   9.680934445545933   -3.1367096088438484
C   7.216973426627894   9.572054116876178   -4.491136042514949
C   6.9221388399670145   8.38808418773132   -5.201270348154335
C   6.078263465805405   7.402098099087423   -3.139296502022766
C   6.348573387221528   7.3096714573854875   -4.493471022000106
C   5.137621785697574   9.080042742350154   -11.279568639954853
H   7.668081248818862   10.412946102678802   -5.022914162827744
S   6.031928975643358   8.72466264647353   -0.746045936224395
H   5.6408174735856775   6.5638484685820275   -2.5970153752964977
H   6.122309037547932   6.383839215466469   -5.027188417789234
H   7.190168085438508   10.594907426419564   -2.5920286231134435
C   5.7116270973628875   10.155517617569938   -11.99143455688701
C   5.982753547816596   10.057644914334606   -13.345092158766905
C   5.692869086643265   8.859492881049778   -14.067781970640777
C   5.106394042529198   7.779054003642631   -13.339091332102823
C   4.8424198951610595   7.893511572256448   -11.985323611585953
H   6.420426567709406   10.893733717970488   -13.890551111430836
H   5.937652963464412   11.083455402314389   -11.461340379787602
H   4.8699720213119875   6.86301915466268   -13.880337574605054
H   4.39056116443624   7.0549935773187915   -11.45052301784401
S   6.031928976016387   8.724662646016416   -15.732481649502787
C   7.154997224300374   8.29930295642883   -6.681573860941726
C   4.905143579431116   9.173891428598449   -9.799499024250137
C   6.1380484191031455   8.694353965236363   -8.996282599372746
C   5.92131910140616   8.777555360071126   -7.484217837538164
H   6.37404488185194   7.657195601600494   -9.28527641073951
H   7.012372376836678   9.300515663402992   -9.284407668792447
H   5.0477889661975945   8.170288929549422   -7.196135238372066
H   5.684083155173464   9.814362349182204   -7.195070192644276
H   8.024995645530867   8.912542070055604   -6.963767627268554
H   7.384238720107609   7.260000620931989   -6.964255402967343
H   4.678638986464269   10.214576747408799   -9.519656760133175
H   4.033721635590226   8.563431637305996   -9.515475941690195
