      87
 i =      362, E =     -1915.0560413825
 Au         0.0000000000        0.0000000000        0.0000000000
 Au         2.9200000000        0.0000000000        0.0000000000
 Au         5.8400000000        0.0000000000        0.0000000000
 Au         1.4600000000        2.5287941680        0.0000000000
 Au         4.3800000000        2.5287941680        0.0000000000
 Au         7.3000000000        2.5287941680        0.0000000000
 Au         2.9200000000        5.0575883360        0.0000000000
 Au         5.8400000000        5.0575883360        0.0000000000
 Au         8.7600000000        5.0575883360        0.0000000000
 Au         1.4600000000        0.8429312920        2.3841700720
 Au         4.3800000000        0.8429312920        2.3841700720
 Au         7.3000000000        0.8429312920        2.3841700720
 Au         2.9200000000        3.3717254600        2.3841700720
 Au         5.8400000000        3.3717254600        2.3841700720
 Au         8.7600000000        3.3717254600        2.3841700720
 Au         4.3800000000        5.9005196280        2.3841700720
 Au         7.3000000000        5.9005196280        2.3841700720
 Au        10.2200000000        5.9005196280        2.3841700720
 Au         0.0000000000        1.6858628760        4.7683401440
 Au         2.9200000000        1.6858628760        4.7683401440
 Au         5.8400000000        1.6858628760        4.7683401440
 Au         1.4600000000        4.2146570440        4.7683401440
 Au         4.3800000000        4.2146570440        4.7683401440
 Au         7.3000000000        4.2146570440        4.7683401440
 Au         2.9200000000        6.7434512120        4.7683401440
 Au         5.8400000000        6.7434512120        4.7683401440
 Au         8.7600000000        6.7434512120        4.7683401440
  C         6.0132096352        3.3338934913       17.9031069721
  C         4.9497408637        3.6591607673       17.0221866055
  C         4.8072236592        3.0305567784       15.8076561148
  C         5.7402626643        2.0228433544       15.3788536682
  C         6.9517525616        2.3530394621       17.4910069022
  C         6.8361595404        1.7359596694       16.2681653819
  C         5.0574841168        1.9359901853       11.8526894627
  H         3.9748376612        3.3067311585       15.1606324225
  H         7.7759488958        2.0980347537       18.1595620631
  H         7.5758812878        0.9956411498       15.9574700375
  H         4.2282338024        4.4183241067       17.3322668072
  C         4.9709606189        3.2989866686       11.5418597743
  C         5.4057944511        3.7763627385       10.3053970730
  C         5.9664421944        2.9072778113        9.3573936419
  C         6.0962360422        1.5471858088        9.6906216966
  C         5.6444639575        1.0699492281       10.9176071992
  H         5.2967147511        4.8354669532       10.0631876574
  H         4.5339570547        3.9912709929       12.2644154143
  H         6.5218883096        0.8557534920        8.9610171808
  H         5.7195300485        0.0032378224       11.1430980040
  C         6.0956344642        3.9568471493       19.2398232075
  S         4.9069267957        2.9169263163       20.2556951045
  H         5.7180850387        4.9854417214       19.2690543612
  H         7.0978913523        3.9153504712       19.6856117967
  C         5.6234671134        1.3135224847       14.1877454775
  C         6.3245163858        3.3861110732        7.9846542410
  S         4.9217439387        2.8205108581        6.8816853508
  H         7.2547177544        2.9425049181        7.6085343787
  H         6.3936564029        4.4790568718        7.9249933220
  C         4.5297292872        1.4072645463       13.1789866630
  H         6.4267309754        0.6103903437       13.9492709273
  H         3.7049869419        2.0406313651       13.5319419190
  H         4.1056793040        0.4012516067       13.0110757159
 Au         8.7600000000        6.7434512120       22.3990623414
 Au         5.8400000000        6.7434512120       22.3990623414
 Au         2.9200000000        6.7434512120       22.3990623414
 Au         7.3000000000        4.2146570440       22.3990623414
 Au         4.3800000000        4.2146570440       22.3990623414
 Au         1.4600000000        4.2146570440       22.3990623414
 Au         5.8400000000        1.6858628760       22.3990623414
 Au         2.9200000000        1.6858628760       22.3990623414
 Au         0.0000000000        1.6858628760       22.3990623414
 Au        10.2200000000        5.9005196280       24.7832324134
 Au         7.3000000000        5.9005196280       24.7832324134
 Au         4.3800000000        5.9005196280       24.7832324134
 Au         8.7600000000        3.3717254600       24.7832324134
 Au         5.8400000000        3.3717254600       24.7832324134
 Au         2.9200000000        3.3717254600       24.7832324134
 Au         7.3000000000        0.8429312920       24.7832324134
 Au         4.3800000000        0.8429312920       24.7832324134
 Au         1.4600000000        0.8429312920       24.7832324134
 Au         8.7600000000        5.0575883360       27.1674024854
 Au         5.8400000000        5.0575883360       27.1674024854
 Au         2.9200000000        5.0575883360       27.1674024854
 Au         7.3000000000        2.5287941680       27.1674024854
 Au         4.3800000000        2.5287941680       27.1674024854
 Au         1.4600000000        2.5287941680       27.1674024854
 Au         5.8400000000        0.0000000000       27.1674024854
 Au         2.9200000000        0.0000000000       27.1674024854
 Au         0.0000000000        0.0000000000       27.1674024854
