87
	Energy:      35.6770512
Au    0.0000000000    0.0000000000    0.0000000000    L3
Au    2.9200000000    0.0000000000    0.0000000000    L3
Au    5.8400000000    0.0000000000    0.0000000000    L3
Au    1.4600000000    2.5287941680    0.0000000000    L3
Au    4.3800000000    2.5287941680    0.0000000000    L3
Au    7.3000000000    2.5287941680    0.0000000000    L3
Au    2.9200000000    5.0575883360    0.0000000000    L3
Au    5.8400000000    5.0575883360    0.0000000000    L3
Au    8.7600000000    5.0575883360    0.0000000000    L3
Au    1.4600000000    0.8429312920    2.3841700720    L3
Au    4.3800000000    0.8429312920    2.3841700720    L3
Au    7.3000000000    0.8429312920    2.3841700720    L3
Au    2.9200000000    3.3717254600    2.3841700720    L3
Au    5.8400000000    3.3717254600    2.3841700720    L3
Au    8.7600000000    3.3717254600    2.3841700720    L3
Au    4.3800000000    5.9005196280    2.3841700720    L3
Au    7.3000000000    5.9005196280    2.3841700720    L3
Au    10.2200000000    5.9005196280    2.3841700720    L3
Au    0.0000000000    1.6858628760    4.7683401440    L3
Au    2.9200000000    1.6858628760    4.7683401440    L3
Au    5.8400000000    1.6858628760    4.7683401440    L3
Au    1.4600000000    4.2146570440    4.7683401440    L3
Au    4.3800000000    4.2146570440    4.7683401440    L3
Au    7.3000000000    4.2146570440    4.7683401440    L3
Au    2.9200000000    6.7434512120    4.7683401440    L3
Au    5.8400000000    6.7434512120    4.7683401440    L3
Au    8.7600000000    6.7434512120    4.7683401440    L3
C    6.21461    3.64542    18.739260144    S
C    6.56914    4.70585    17.893730144    S
C    6.47177    4.57015    16.506850143999998    S
C    6.0165500000000005    3.36328    15.934100143999999    S
C    5.7594    2.4436699999999996    18.174530144    S
C    5.660810000000001    2.3065    16.786400143999998    S
C    6.1570100000000005    4.13621    12.066540143999998    S
H    6.75957    5.415330000000001    15.898800143999999    S
H    5.4842200000000005    1.61143    18.810550143999997    S
H    5.3094600000000005    1.3680299999999996    16.374140144    S
H    6.92497    5.64232    18.305900144    S
C    6.55267    5.270100000000001    11.190300143999998    S
C    6.4870600000000005    5.1605799999999995    9.855020143999997    S
C    6.01462    3.9028300000000002    9.218560143999998    S
C    5.64705    2.8701899999999996    10.013970143999998    S
C    5.72072    2.99093    11.492300143999998    S
H    6.78433    6.002230000000001    9.236260143999997    S
H    6.9023900000000005    6.198310000000001    11.632900143999997    S
H    5.29481    1.9304700000000001    9.606520143999997    S
H    5.41773    2.13543    12.085190143999998    S
C    6.33152    3.78978    20.231950144    S
S    4.70524    3.60516    21.024550144    S
H    6.73625    4.786849999999999    20.508940143999997    S
H    7.02384    3.0167699999999997    20.626860144    S
C    5.89975    3.1405799999999995    14.438990143999998    S
C    5.97911    3.8646100000000003    7.7031501439999985    S
S    5.39613    2.29905    6.968340143999999    S
H    7.0032000000000005    4.056329999999999    7.318790143999998    S
H    5.3148100000000005    4.6769300000000005    7.340550143999998    S
C    6.27837    4.34553    13.562920143999998    S
H    6.54717    2.2778899999999997    14.168230143999997    S
H    7.3375200000000005    4.6084499999999995    13.774400143999998    S
H    5.62575    5.20257    13.835880143999997    S
Au    8.7600000000    6.7434512120    23.224549999999997    R0
Au    5.8400000000    6.7434512120    23.224549999999997    R0
Au    2.9200000000    6.7434512120    23.224549999999997    R0
Au    7.3000000000    4.2146570440    23.224549999999997    R0
Au    4.3800000000    4.2146570440    23.224549999999997    R0
Au    1.4600000000    4.2146570440    23.224549999999997    R0
Au    5.8400000000    1.6858628760    23.224549999999997    R0
Au    2.9200000000    1.6858628760    23.224549999999997    R0
Au    0.0000000000    1.6858628760    23.224549999999997    R0
Au    10.2200000000    5.9005196280    25.608720072    R0
Au    7.3000000000    5.9005196280    25.608720072    R0
Au    4.3800000000    5.9005196280    25.608720072    R0
Au    8.7600000000    3.3717254600    25.608720072    R0
Au    5.8400000000    3.3717254600    25.608720072    R0
Au    2.9200000000    3.3717254600    25.608720072    R0
Au    7.3000000000    0.8429312920    25.608720072    R0
Au    4.3800000000    0.8429312920    25.608720072    R0
Au    1.4600000000    0.8429312920    25.608720072    R0
Au    8.7600000000    5.0575883360    27.992890143999997    R0
Au    5.8400000000    5.0575883360    27.992890143999997    R0
Au    2.9200000000    5.0575883360    27.992890143999997    R0
Au    7.3000000000    2.5287941680    27.992890143999997    R0
Au    4.3800000000    2.5287941680    27.992890143999997    R0
Au    1.4600000000    2.5287941680    27.992890143999997    R0
Au    5.8400000000    0.0000000000    27.992890143999997    R0
Au    2.9200000000    0.0000000000    27.992890143999997    R0
Au    0.0000000000    0.0000000000    27.992890143999997    R0
