87
	Energy:      35.6770512
Au    0.0000000000    0.0000000000    0.0000000000    L3
Au    2.9200000000    0.0000000000    0.0000000000    L3
Au    5.8400000000    0.0000000000    0.0000000000    L3
Au    1.4600000000    2.5287941680    0.0000000000    L3
Au    4.3800000000    2.5287941680    0.0000000000    L3
Au    7.3000000000    2.5287941680    0.0000000000    L3
Au    2.9200000000    5.0575883360    0.0000000000    L3
Au    5.8400000000    5.0575883360    0.0000000000    L3
Au    8.7600000000    5.0575883360    0.0000000000    L3
Au    1.4600000000    0.8429312920    2.3841700720    L3
Au    4.3800000000    0.8429312920    2.3841700720    L3
Au    7.3000000000    0.8429312920    2.3841700720    L3
Au    2.9200000000    3.3717254600    2.3841700720    L3
Au    5.8400000000    3.3717254600    2.3841700720    L3
Au    8.7600000000    3.3717254600    2.3841700720    L3
Au    4.3800000000    5.9005196280    2.3841700720    L3
Au    7.3000000000    5.9005196280    2.3841700720    L3
Au    10.2200000000    5.9005196280    2.3841700720    L3
Au    0.0000000000    1.6858628760    4.7683401440    L3
Au    2.9200000000    1.6858628760    4.7683401440    L3
Au    5.8400000000    1.6858628760    4.7683401440    L3
Au    1.4600000000    4.2146570440    4.7683401440    L3
Au    4.3800000000    4.2146570440    4.7683401440    L3
Au    7.3000000000    4.2146570440    4.7683401440    L3
Au    2.9200000000    6.7434512120    4.7683401440    L3
Au    5.8400000000    6.7434512120    4.7683401440    L3
Au    8.7600000000    6.7434512120    4.7683401440    L3
C    5.543820455900001    3.5034337130    18.2213497111    S
C    4.5980413782    4.2350892226    17.456937256099998    S
C    4.4178291768    3.9940647676    16.1134189802    S
C    5.1822591977000005    2.9858954013    15.427950223500002    S
C    6.2719570753    2.4745653237    17.5718027677    S
C    6.111308729800001    2.2310944728    16.227307667799998    S
C    4.615615136600001    3.3733315281    11.6585612549    S
H    3.6926408905000003    4.5883683054    15.557180222100001    S
H    6.9894256185999994    1.8902836007    18.1513291036    S
H    6.7081399379999995    1.4599604266    15.737799459999998    S
H    4.0157176198    5.0148126059    17.951436157099998    S
C    4.7337535414000005    4.5730608464    10.945154257999999    S
C    5.1377488713999995    4.5799194251    9.608051961400001    S
C    5.4547746653    3.3844728950    8.9476740799    S
C    5.3389905973000005    2.1803937811    9.6641991483    S
C    4.923434523700001    2.1758847749    10.993536528900002    S
H    5.213717966900001    5.5267174647    9.070045031500001    S
H    4.501797187100001    5.5192140265    11.4392341609    S
H    5.5654986837    1.2362152640    9.1649068246    S
H    4.8323458331    1.2225518802    11.517894148500002    S
C    5.7803362945    3.8180351098    19.6509592004    S
S    4.4578537499    2.8892982032    20.5990623414    S
H    5.662458935    4.8852157327    19.8778264734    S
H    6.7643523052    3.4783100727    19.998565063    S
C    5.0706656806999995    2.7191215403    14.0661851935    S
C    5.8843515252    3.3809228296    7.5102336999    S
S    4.4507070088    2.7982284246    6.468340144    S
H    6.7125900454    2.6830065445    7.3307630519    S
H    6.1882032368    4.3798960148    7.1711348549    S
C    4.135852164100001    3.3717311346    13.099595403599999    S
H    5.714442634500001    1.9328762640    13.6616182339    S
H    3.9095627168000004    4.4034251196    13.411088099499999    S
H    3.1619404294000004    2.8406437001    13.141902239499998    S
Au    8.7600000000    6.7434512120    22.3990623414    R0
Au    5.8400000000    6.7434512120    22.3990623414    R0
Au    2.9200000000    6.7434512120    22.3990623414    R0
Au    7.3000000000    4.2146570440    22.3990623414    R0
Au    4.3800000000    4.2146570440    22.3990623414    R0
Au    1.4600000000    4.2146570440    22.3990623414    R0
Au    5.8400000000    1.6858628760    22.3990623414    R0
Au    2.9200000000    1.6858628760    22.3990623414    R0
Au    0.0000000000    1.6858628760    22.3990623414    R0
Au    10.2200000000    5.9005196280    24.783232413400004    R0
Au    7.3000000000    5.9005196280    24.783232413400004    R0
Au    4.3800000000    5.9005196280    24.783232413400004    R0
Au    8.7600000000    3.3717254600    24.783232413400004    R0
Au    5.8400000000    3.3717254600    24.783232413400004    R0
Au    2.9200000000    3.3717254600    24.783232413400004    R0
Au    7.3000000000    0.8429312920    24.783232413400004    R0
Au    4.3800000000    0.8429312920    24.783232413400004    R0
Au    1.4600000000    0.8429312920    24.783232413400004    R0
Au    8.7600000000    5.0575883360    27.1674024854    R0
Au    5.8400000000    5.0575883360    27.1674024854    R0
Au    2.9200000000    5.0575883360    27.1674024854    R0
Au    7.3000000000    2.5287941680    27.1674024854    R0
Au    4.3800000000    2.5287941680    27.1674024854    R0
Au    1.4600000000    2.5287941680    27.1674024854    R0
Au    5.8400000000    0.0000000000    27.1674024854    R0
Au    2.9200000000    0.0000000000    27.1674024854    R0
Au    0.0000000000    0.0000000000    27.1674024854    R0
